
*** ChampSim Multicore Out-of-Order Simulator ***

Warmup Instructions: 1000000
Simulation Instructions: 8000000
Number of CPUs: 4
LLC sets: 8192
LLC ways: 16
Off-chip DRAM Size: 8192 MB Channels: 2 Width: 64-bit Data Rate: 1600 MT/s

CPU 0 runs /home/ubuntu/workspace/ChampSim-inclusive/traces/bzip2_183B.trace.gz
CPU 1 runs /home/ubuntu/workspace/ChampSim-inclusive/traces/bzip2_183B.trace.gz
CPU 2 runs /home/ubuntu/workspace/ChampSim-inclusive/traces/bzip2_183B.trace.gz
CPU 3 runs /home/ubuntu/workspace/ChampSim-inclusive/traces/bzip2_183B.trace.gz
CPU 0 Bimodal branch predictor
CPU 1 Bimodal branch predictor
CPU 2 Bimodal branch predictor
CPU 3 Bimodal branch predictor

Warmup complete CPU 0 instructions: 1000493 cycles: 557983 (Simulation time: 0 hr 0 min 7 sec) 
Warmup complete CPU 1 instructions: 1000659 cycles: 557983 (Simulation time: 0 hr 0 min 7 sec) 
Warmup complete CPU 2 instructions: 1000310 cycles: 557983 (Simulation time: 0 hr 0 min 7 sec) 
Warmup complete CPU 3 instructions: 1000002 cycles: 557983 (Simulation time: 0 hr 0 min 7 sec) 

Same Core!
It's own block 15 is being evicted 

Different Cores!
Evicting CPU : 2   Block CPU : 0
Spy trying to Evict from 0
Hence it doesn't evict!

Checking the next block with LRU 14

Different Cores!
Evicting CPU : 2   Block CPU : 0
Spy trying to Evict from 0
Hence it doesn't evict!

Checking the next block with LRU 13

Same Core!
It's own block 13 is being evicted 

Different Cores!
Evicting CPU : 2   Block CPU : 0
Spy trying to Evict from 0
Hence it doesn't evict!

Checking the next block with LRU 14

Different Cores!
Evicting CPU : 2   Block CPU : 0
Spy trying to Evict from 0
Hence it doesn't evict!

Checking the next block with LRU 13

Different Cores!
Evicting CPU : 2   Block CPU : 0
Spy trying to Evict from 0
Hence it doesn't evict!

Checking the next block with LRU 12

Same Core!
It's own block 12 is being evicted 

Different Cores!
Evicting CPU : 0   Block CPU : 2
Evicting from L2C with CPU 0

Evicting from L2C with CPU 0

Evicting from LLC with CPU 0

It's own block 15 is being evicted 

Different Cores!
Evicting CPU : 3   Block CPU : 2
Spy trying to Evict from 0
Hence it doesn't evict!

Checking the next block with LRU 14

Different Cores!
Evicting CPU : 3   Block CPU : 0
Spy trying to Evict from 0
Hence it doesn't evict!

Checking the next block with LRU 13

Different Cores!
Evicting CPU : 3   Block CPU : 1
Spy trying to Evict from 0
Hence it doesn't evict!

Checking the next block with LRU 12

Different Cores!
Evicting CPU : 3   Block CPU : 0
Spy trying to Evict from 0
Hence it doesn't evict!

Checking the next block with LRU 11

Different Cores!
Evicting CPU : 3   Block CPU : 2
Spy trying to Evict from 0
Hence it doesn't evict!

Checking the next block with LRU 10

Randomly Evicting  11

Different Cores!
Evicting CPU : 3   Block CPU : 1
Spy trying to Evict from 0
Hence it doesn't evict!

Checking the next block with LRU 14

Different Cores!
Evicting CPU : 3   Block CPU : 0
Spy trying to Evict from 0
Hence it doesn't evict!

Checking the next block with LRU 13

Different Cores!
Evicting CPU : 3   Block CPU : 1
Spy trying to Evict from 0
Hence it doesn't evict!

Checking the next block with LRU 12

Different Cores!
Evicting CPU : 3   Block CPU : 0
Spy trying to Evict from 0
Hence it doesn't evict!

Checking the next block with LRU 11

Different Cores!
Evicting CPU : 3   Block CPU : 2
Spy trying to Evict from 0
Hence it doesn't evict!

Checking the next block with LRU 10

Randomly Evicting  11

Same Core!
It's own block 15 is being evicted 

Different Cores!
Evicting CPU : 3   Block CPU : 0
Spy trying to Evict from 0
Hence it doesn't evict!

Checking the next block with LRU 14

Different Cores!
Evicting CPU : 3   Block CPU : 0
Spy trying to Evict from 0
Hence it doesn't evict!

Checking the next block with LRU 13

Different Cores!
Evicting CPU : 3   Block CPU : 2
Spy trying to Evict from 0
Hence it doesn't evict!

Checking the next block with LRU 12

Different Cores!
Evicting CPU : 3   Block CPU : 1
Spy trying to Evict from 0
Hence it doesn't evict!

Checking the next block with LRU 11

Different Cores!
Evicting CPU : 3   Block CPU : 2
Spy trying to Evict from 0
Hence it doesn't evict!

Checking the next block with LRU 10

Randomly Evicting  11

Different Cores!
Evicting CPU : 0   Block CPU : 3
Evicting from L2C with CPU 0

Evicting from L2C with CPU 0

Evicting from LLC with CPU 0

It's own block 15 is being evicted 

Different Cores!
Evicting CPU : 0   Block CPU : 1
Evicting from L2C with CPU 0

Evicting from L2C with CPU 0

Evicting from LLC with CPU 0

It's own block 15 is being evicted 

Same Core!
It's own block 15 is being evicted 

Different Cores!
Evicting CPU : 1   Block CPU : 2
Spy trying to Evict from 0
Hence it doesn't evict!

Checking the next block with LRU 14

Same Core!
It's own block 14 is being evicted 

Different Cores!
Evicting CPU : 1   Block CPU : 0
Spy trying to Evict from 0
Hence it doesn't evict!

Checking the next block with LRU 14

Different Cores!
Evicting CPU : 1   Block CPU : 2
Spy trying to Evict from 0
Hence it doesn't evict!

Checking the next block with LRU 13

Same Core!
It's own block 13 is being evicted 

Different Cores!
Evicting CPU : 2   Block CPU : 1
Spy trying to Evict from 0
Hence it doesn't evict!

Checking the next block with LRU 14

Different Cores!
Evicting CPU : 2   Block CPU : 3
Spy trying to Evict from 0
Hence it doesn't evict!

Checking the next block with LRU 13

Different Cores!
Evicting CPU : 2   Block CPU : 1
Spy trying to Evict from 0
Hence it doesn't evict!

Checking the next block with LRU 12

Same Core!
It's own block 12 is being evicted 

Same Core!
It's own block 15 is being evicted 

Same Core!
It's own block 15 is being evicted 

Different Cores!
Evicting CPU : 1   Block CPU : 0
Spy trying to Evict from 0
Hence it doesn't evict!

Checking the next block with LRU 14

Different Cores!
Evicting CPU : 1   Block CPU : 3
Spy trying to Evict from 0
Hence it doesn't evict!

Checking the next block with LRU 13

Same Core!
It's own block 13 is being evicted 

Same Core!
It's own block 15 is being evicted 

Different Cores!
Evicting CPU : 1   Block CPU : 3
Spy trying to Evict from 0
Hence it doesn't evict!

Checking the next block with LRU 14

Different Cores!
Evicting CPU : 1   Block CPU : 3
Spy trying to Evict from 0
Hence it doesn't evict!

Checking the next block with LRU 13

Different Cores!
Evicting CPU : 1   Block CPU : 3
Spy trying to Evict from 0
Hence it doesn't evict!

Checking the next block with LRU 12

Different Cores!
Evicting CPU : 1   Block CPU : 3
Spy trying to Evict from 0
Hence it doesn't evict!

Checking the next block with LRU 11

Different Cores!
Evicting CPU : 1   Block CPU : 0
Spy trying to Evict from 0
Hence it doesn't evict!

Checking the next block with LRU 10

Randomly Evicting  11

Same Core!
It's own block 15 is being evicted 

Different Cores!
Evicting CPU : 3   Block CPU : 0
Spy trying to Evict from 0
Hence it doesn't evict!

Checking the next block with LRU 14

Same Core!
It's own block 14 is being evicted 

Different Cores!
Evicting CPU : 0   Block CPU : 3
Evicting from L2C with CPU 0

Evicting from L2C with CPU 0

Evicting from LLC with CPU 0

It's own block 15 is being evicted 

Different Cores!
Evicting CPU : 1   Block CPU : 2
Spy trying to Evict from 0
Hence it doesn't evict!

Checking the next block with LRU 14

Different Cores!
Evicting CPU : 1   Block CPU : 0
Spy trying to Evict from 0
Hence it doesn't evict!

Checking the next block with LRU 13

Same Core!
It's own block 13 is being evicted 

Different Cores!
Evicting CPU : 0   Block CPU : 1
Evicting from L2C with CPU 0

Evicting from L2C with CPU 0

Evicting from LLC with CPU 0

It's own block 15 is being evicted 

Different Cores!
Evicting CPU : 3   Block CPU : 0
Spy trying to Evict from 0
Hence it doesn't evict!

Checking the next block with LRU 14

Different Cores!
Evicting CPU : 3   Block CPU : 0
Spy trying to Evict from 0
Hence it doesn't evict!

Checking the next block with LRU 13

Different Cores!
Evicting CPU : 3   Block CPU : 2
Spy trying to Evict from 0
Hence it doesn't evict!

Checking the next block with LRU 12

Same Core!
It's own block 12 is being evicted 

Different Cores!
Evicting CPU : 0   Block CPU : 1
Evicting from L2C with CPU 0

Evicting from L2C with CPU 0

Evicting from LLC with CPU 0

It's own block 15 is being evicted 

Same Core!
It's own block 15 is being evicted 

Different Cores!
Evicting CPU : 3   Block CPU : 1
Spy trying to Evict from 0
Hence it doesn't evict!

Checking the next block with LRU 14

Same Core!
It's own block 14 is being evicted 

Different Cores!
Evicting CPU : 3   Block CPU : 1
Spy trying to Evict from 0
Hence it doesn't evict!

Checking the next block with LRU 14

Different Cores!
Evicting CPU : 3   Block CPU : 2
Spy trying to Evict from 0
Hence it doesn't evict!

Checking the next block with LRU 13

Different Cores!
Evicting CPU : 3   Block CPU : 0
Spy trying to Evict from 0
Hence it doesn't evict!

Checking the next block with LRU 12

Different Cores!
Evicting CPU : 3   Block CPU : 0
Spy trying to Evict from 0
Hence it doesn't evict!

Checking the next block with LRU 11

Different Cores!
Evicting CPU : 3   Block CPU : 2
Spy trying to Evict from 0
Hence it doesn't evict!

Checking the next block with LRU 10

Randomly Evicting  11

Different Cores!
Evicting CPU : 3   Block CPU : 2
Spy trying to Evict from 0
Hence it doesn't evict!

Checking the next block with LRU 14

Different Cores!
Evicting CPU : 3   Block CPU : 2
Spy trying to Evict from 0
Hence it doesn't evict!

Checking the next block with LRU 13

Same Core!
It's own block 13 is being evicted 

Different Cores!
Evicting CPU : 2   Block CPU : 1
Spy trying to Evict from 0
Hence it doesn't evict!

Checking the next block with LRU 14

Same Core!
It's own block 14 is being evicted 

Same Core!
It's own block 15 is being evicted 

Different Cores!
Evicting CPU : 3   Block CPU : 0
Spy trying to Evict from 0
Hence it doesn't evict!

Checking the next block with LRU 14

Different Cores!
Evicting CPU : 3   Block CPU : 2
Spy trying to Evict from 0
Hence it doesn't evict!

Checking the next block with LRU 13

Different Cores!
Evicting CPU : 3   Block CPU : 2
Spy trying to Evict from 0
Hence it doesn't evict!

Checking the next block with LRU 12

Different Cores!
Evicting CPU : 3   Block CPU : 2
Spy trying to Evict from 0
Hence it doesn't evict!

Checking the next block with LRU 11

Different Cores!
Evicting CPU : 3   Block CPU : 2
Spy trying to Evict from 0
Hence it doesn't evict!

Checking the next block with LRU 10

Randomly Evicting  11

Different Cores!
Evicting CPU : 3   Block CPU : 0
Spy trying to Evict from 0
Hence it doesn't evict!

Checking the next block with LRU 14

Different Cores!
Evicting CPU : 3   Block CPU : 2
Spy trying to Evict from 0
Hence it doesn't evict!

Checking the next block with LRU 13

Different Cores!
Evicting CPU : 3   Block CPU : 2
Spy trying to Evict from 0
Hence it doesn't evict!

Checking the next block with LRU 12

Different Cores!
Evicting CPU : 3   Block CPU : 0
Spy trying to Evict from 0
Hence it doesn't evict!

Checking the next block with LRU 11

Same Core!
It's own block 11 is being evicted 

Randomly Evicting  11

Different Cores!
Evicting CPU : 2   Block CPU : 1
Spy trying to Evict from 0
Hence it doesn't evict!

Checking the next block with LRU 14

Different Cores!
Evicting CPU : 2   Block CPU : 3
Spy trying to Evict from 0
Hence it doesn't evict!

Checking the next block with LRU 13

Different Cores!
Evicting CPU : 2   Block CPU : 1
Spy trying to Evict from 0
Hence it doesn't evict!

Checking the next block with LRU 12

Same Core!
It's own block 12 is being evicted 

Different Cores!
Evicting CPU : 2   Block CPU : 0
Spy trying to Evict from 0
Hence it doesn't evict!

Checking the next block with LRU 14

Different Cores!
Evicting CPU : 2   Block CPU : 0
Spy trying to Evict from 0
Hence it doesn't evict!

Checking the next block with LRU 13

Different Cores!
Evicting CPU : 2   Block CPU : 3
Spy trying to Evict from 0
Hence it doesn't evict!

Checking the next block with LRU 12

Different Cores!
Evicting CPU : 2   Block CPU : 3
Spy trying to Evict from 0
Hence it doesn't evict!

Checking the next block with LRU 11

Different Cores!
Evicting CPU : 2   Block CPU : 3
Spy trying to Evict from 0
Hence it doesn't evict!

Checking the next block with LRU 10

Randomly Evicting  11

Different Cores!
Evicting CPU : 2   Block CPU : 1
Spy trying to Evict from 0
Hence it doesn't evict!

Checking the next block with LRU 14

Different Cores!
Evicting CPU : 2   Block CPU : 0
Spy trying to Evict from 0
Hence it doesn't evict!

Checking the next block with LRU 13

Same Core!
It's own block 13 is being evicted 

Same Core!
It's own block 15 is being evicted 

Same Core!
It's own block 15 is being evicted 

Different Cores!
Evicting CPU : 3   Block CPU : 0
Spy trying to Evict from 0
Hence it doesn't evict!

Checking the next block with LRU 14

Different Cores!
Evicting CPU : 3   Block CPU : 2
Spy trying to Evict from 0
Hence it doesn't evict!

Checking the next block with LRU 13

Different Cores!
Evicting CPU : 3   Block CPU : 2
Spy trying to Evict from 0
Hence it doesn't evict!

Checking the next block with LRU 12

Different Cores!
Evicting CPU : 3   Block CPU : 0
Spy trying to Evict from 0
Hence it doesn't evict!

Checking the next block with LRU 11

Different Cores!
Evicting CPU : 3   Block CPU : 1
Spy trying to Evict from 0
Hence it doesn't evict!

Checking the next block with LRU 10

Randomly Evicting  11

Different Cores!
Evicting CPU : 3   Block CPU : 0
Spy trying to Evict from 0
Hence it doesn't evict!

Checking the next block with LRU 14

Different Cores!
Evicting CPU : 3   Block CPU : 0
Spy trying to Evict from 0
Hence it doesn't evict!

Checking the next block with LRU 13

Different Cores!
Evicting CPU : 3   Block CPU : 0
Spy trying to Evict from 0
Hence it doesn't evict!

Checking the next block with LRU 12

Different Cores!
Evicting CPU : 3   Block CPU : 1
Spy trying to Evict from 0
Hence it doesn't evict!

Checking the next block with LRU 11

Different Cores!
Evicting CPU : 3   Block CPU : 1
Spy trying to Evict from 0
Hence it doesn't evict!

Checking the next block with LRU 10

Randomly Evicting  11

Different Cores!
Evicting CPU : 3   Block CPU : 2
Spy trying to Evict from 0
Hence it doesn't evict!

Checking the next block with LRU 14

Same Core!
It's own block 14 is being evicted 

Same Core!
It's own block 15 is being evicted 

Different Cores!
Evicting CPU : 2   Block CPU : 1
Spy trying to Evict from 0
Hence it doesn't evict!

Checking the next block with LRU 14

Different Cores!
Evicting CPU : 2   Block CPU : 0
Spy trying to Evict from 0
Hence it doesn't evict!

Checking the next block with LRU 13

Different Cores!
Evicting CPU : 2   Block CPU : 1
Spy trying to Evict from 0
Hence it doesn't evict!

Checking the next block with LRU 12

Different Cores!
Evicting CPU : 2   Block CPU : 1
Spy trying to Evict from 0
Hence it doesn't evict!

Checking the next block with LRU 11

Same Core!
It's own block 11 is being evicted 

Randomly Evicting  11

Different Cores!
Evicting CPU : 3   Block CPU : 0
Spy trying to Evict from 0
Hence it doesn't evict!

Checking the next block with LRU 14

Different Cores!
Evicting CPU : 3   Block CPU : 2
Spy trying to Evict from 0
Hence it doesn't evict!

Checking the next block with LRU 13

Same Core!
It's own block 13 is being evicted 

Same Core!
It's own block 15 is being evicted 

Different Cores!
Evicting CPU : 0   Block CPU : 1
Evicting from L2C with CPU 0

Evicting from L2C with CPU 0

Evicting from LLC with CPU 0

It's own block 15 is being evicted 

Same Core!
It's own block 15 is being evicted 

Same Core!
It's own block 15 is being evicted 

Different Cores!
Evicting CPU : 0   Block CPU : 2
Evicting from L2C with CPU 0

Evicting from L2C with CPU 0

Evicting from LLC with CPU 0

It's own block 15 is being evicted 

Different Cores!
Evicting CPU : 3   Block CPU : 0
Spy trying to Evict from 0
Hence it doesn't evict!

Checking the next block with LRU 14

Different Cores!
Evicting CPU : 3   Block CPU : 0
Spy trying to Evict from 0
Hence it doesn't evict!

Checking the next block with LRU 13

Different Cores!
Evicting CPU : 3   Block CPU : 2
Spy trying to Evict from 0
Hence it doesn't evict!

Checking the next block with LRU 12

Same Core!
It's own block 12 is being evicted 

Different Cores!
Evicting CPU : 2   Block CPU : 1
Spy trying to Evict from 0
Hence it doesn't evict!

Checking the next block with LRU 14

Same Core!
It's own block 14 is being evicted 

Same Core!
It's own block 15 is being evicted 

Different Cores!
Evicting CPU : 3   Block CPU : 2
Spy trying to Evict from 0
Hence it doesn't evict!

Checking the next block with LRU 14

Same Core!
It's own block 14 is being evicted 

Same Core!
It's own block 15 is being evicted 

Different Cores!
Evicting CPU : 0   Block CPU : 1
Evicting from L2C with CPU 0

Evicting from L2C with CPU 0

Evicting from LLC with CPU 0

It's own block 15 is being evicted 

Same Core!
It's own block 15 is being evicted 

Same Core!
It's own block 15 is being evicted 

Different Cores!
Evicting CPU : 1   Block CPU : 2
Spy trying to Evict from 0
Hence it doesn't evict!

Checking the next block with LRU 14

Different Cores!
Evicting CPU : 1   Block CPU : 2
Spy trying to Evict from 0
Hence it doesn't evict!

Checking the next block with LRU 13

Different Cores!
Evicting CPU : 1   Block CPU : 0
Spy trying to Evict from 0
Hence it doesn't evict!

Checking the next block with LRU 12

Same Core!
It's own block 12 is being evicted 

Same Core!
It's own block 15 is being evicted 

Different Cores!
Evicting CPU : 1   Block CPU : 2
Spy trying to Evict from 0
Hence it doesn't evict!

Checking the next block with LRU 14

Different Cores!
Evicting CPU : 1   Block CPU : 3
Spy trying to Evict from 0
Hence it doesn't evict!

Checking the next block with LRU 13

Same Core!
It's own block 13 is being evicted 

Different Cores!
Evicting CPU : 2   Block CPU : 1
Spy trying to Evict from 0
Hence it doesn't evict!

Checking the next block with LRU 14

Different Cores!
Evicting CPU : 2   Block CPU : 3
Spy trying to Evict from 0
Hence it doesn't evict!

Checking the next block with LRU 13

Different Cores!
Evicting CPU : 2   Block CPU : 1
Spy trying to Evict from 0
Hence it doesn't evict!

Checking the next block with LRU 12

Different Cores!
Evicting CPU : 2   Block CPU : 3
Spy trying to Evict from 0
Hence it doesn't evict!

Checking the next block with LRU 11

Different Cores!
Evicting CPU : 2   Block CPU : 0
Spy trying to Evict from 0
Hence it doesn't evict!

Checking the next block with LRU 10

Randomly Evicting  11

Different Cores!
Evicting CPU : 3   Block CPU : 1
Spy trying to Evict from 0
Hence it doesn't evict!

Checking the next block with LRU 14

Different Cores!
Evicting CPU : 3   Block CPU : 2
Spy trying to Evict from 0
Hence it doesn't evict!

Checking the next block with LRU 13

Different Cores!
Evicting CPU : 3   Block CPU : 2
Spy trying to Evict from 0
Hence it doesn't evict!

Checking the next block with LRU 12

Same Core!
It's own block 12 is being evicted 

Different Cores!
Evicting CPU : 1   Block CPU : 0
Spy trying to Evict from 0
Hence it doesn't evict!

Checking the next block with LRU 14

Different Cores!
Evicting CPU : 1   Block CPU : 0
Spy trying to Evict from 0
Hence it doesn't evict!

Checking the next block with LRU 13

Different Cores!
Evicting CPU : 1   Block CPU : 0
Spy trying to Evict from 0
Hence it doesn't evict!

Checking the next block with LRU 12

Same Core!
It's own block 12 is being evicted 

Different Cores!
Evicting CPU : 2   Block CPU : 0
Spy trying to Evict from 0
Hence it doesn't evict!

Checking the next block with LRU 14

Same Core!
It's own block 14 is being evicted 

Different Cores!
Evicting CPU : 1   Block CPU : 0
Spy trying to Evict from 0
Hence it doesn't evict!

Checking the next block with LRU 14

Different Cores!
Evicting CPU : 1   Block CPU : 2
Spy trying to Evict from 0
Hence it doesn't evict!

Checking the next block with LRU 13

Different Cores!
Evicting CPU : 1   Block CPU : 0
Spy trying to Evict from 0
Hence it doesn't evict!

Checking the next block with LRU 12

Different Cores!
Evicting CPU : 1   Block CPU : 3
Spy trying to Evict from 0
Hence it doesn't evict!

Checking the next block with LRU 11

Same Core!
It's own block 11 is being evicted 

Randomly Evicting  11

Different Cores!
Evicting CPU : 1   Block CPU : 0
Spy trying to Evict from 0
Hence it doesn't evict!

Checking the next block with LRU 14

Different Cores!
Evicting CPU : 1   Block CPU : 3
Spy trying to Evict from 0
Hence it doesn't evict!

Checking the next block with LRU 13

Different Cores!
Evicting CPU : 1   Block CPU : 2
Spy trying to Evict from 0
Hence it doesn't evict!

Checking the next block with LRU 12

Different Cores!
Evicting CPU : 1   Block CPU : 3
Spy trying to Evict from 0
Hence it doesn't evict!

Checking the next block with LRU 11

Different Cores!
Evicting CPU : 1   Block CPU : 2
Spy trying to Evict from 0
Hence it doesn't evict!

Checking the next block with LRU 10

Randomly Evicting  11

Different Cores!
Evicting CPU : 2   Block CPU : 1
Spy trying to Evict from 0
Hence it doesn't evict!

Checking the next block with LRU 14

Same Core!
It's own block 14 is being evicted 

Different Cores!
Evicting CPU : 2   Block CPU : 1
Spy trying to Evict from 0
Hence it doesn't evict!

Checking the next block with LRU 14

Same Core!
It's own block 14 is being evicted 

Different Cores!
Evicting CPU : 2   Block CPU : 3
Spy trying to Evict from 0
Hence it doesn't evict!

Checking the next block with LRU 14

Different Cores!
Evicting CPU : 2   Block CPU : 1
Spy trying to Evict from 0
Hence it doesn't evict!

Checking the next block with LRU 13

Different Cores!
Evicting CPU : 2   Block CPU : 1
Spy trying to Evict from 0
Hence it doesn't evict!

Checking the next block with LRU 12

Same Core!
It's own block 12 is being evicted 

Different Cores!
Evicting CPU : 3   Block CPU : 0
Spy trying to Evict from 0
Hence it doesn't evict!

Checking the next block with LRU 14

Different Cores!
Evicting CPU : 3   Block CPU : 1
Spy trying to Evict from 0
Hence it doesn't evict!

Checking the next block with LRU 13

Different Cores!
Evicting CPU : 3   Block CPU : 1
Spy trying to Evict from 0
Hence it doesn't evict!

Checking the next block with LRU 12

Different Cores!
Evicting CPU : 3   Block CPU : 0
Spy trying to Evict from 0
Hence it doesn't evict!

Checking the next block with LRU 11

Same Core!
It's own block 11 is being evicted 

Randomly Evicting  11

Same Core!
It's own block 15 is being evicted 

Different Cores!
Evicting CPU : 3   Block CPU : 0
Spy trying to Evict from 0
Hence it doesn't evict!

Checking the next block with LRU 14

Different Cores!
Evicting CPU : 3   Block CPU : 0
Spy trying to Evict from 0
Hence it doesn't evict!

Checking the next block with LRU 13

Different Cores!
Evicting CPU : 3   Block CPU : 2
Spy trying to Evict from 0
Hence it doesn't evict!

Checking the next block with LRU 12

Different Cores!
Evicting CPU : 3   Block CPU : 1
Spy trying to Evict from 0
Hence it doesn't evict!

Checking the next block with LRU 11

Different Cores!
Evicting CPU : 3   Block CPU : 1
Spy trying to Evict from 0
Hence it doesn't evict!

Checking the next block with LRU 10

Randomly Evicting  11

Different Cores!
Evicting CPU : 0   Block CPU : 3
Evicting from L2C with CPU 0

Evicting from L2C with CPU 0

Evicting from LLC with CPU 0

It's own block 15 is being evicted 

Same Core!
It's own block 15 is being evicted 

Same Core!
It's own block 15 is being evicted 

Different Cores!
Evicting CPU : 1   Block CPU : 3
Spy trying to Evict from 0
Hence it doesn't evict!

Checking the next block with LRU 14

Same Core!
It's own block 14 is being evicted 

Different Cores!
Evicting CPU : 2   Block CPU : 3
Spy trying to Evict from 0
Hence it doesn't evict!

Checking the next block with LRU 14

Same Core!
It's own block 14 is being evicted 

Different Cores!
Evicting CPU : 2   Block CPU : 0
Spy trying to Evict from 0
Hence it doesn't evict!

Checking the next block with LRU 14

Different Cores!
Evicting CPU : 2   Block CPU : 3
Spy trying to Evict from 0
Hence it doesn't evict!

Checking the next block with LRU 13

Different Cores!
Evicting CPU : 2   Block CPU : 0
Spy trying to Evict from 0
Hence it doesn't evict!

Checking the next block with LRU 12

Different Cores!
Evicting CPU : 2   Block CPU : 0
Spy trying to Evict from 0
Hence it doesn't evict!

Checking the next block with LRU 11

Different Cores!
Evicting CPU : 2   Block CPU : 0
Spy trying to Evict from 0
Hence it doesn't evict!

Checking the next block with LRU 10

Randomly Evicting  11

Same Core!
It's own block 15 is being evicted 

Different Cores!
Evicting CPU : 3   Block CPU : 0
Spy trying to Evict from 0
Hence it doesn't evict!

Checking the next block with LRU 14

Different Cores!
Evicting CPU : 3   Block CPU : 0
Spy trying to Evict from 0
Hence it doesn't evict!

Checking the next block with LRU 13

Same Core!
It's own block 13 is being evicted 

Different Cores!
Evicting CPU : 1   Block CPU : 2
Spy trying to Evict from 0
Hence it doesn't evict!

Checking the next block with LRU 14

Same Core!
It's own block 14 is being evicted 

Different Cores!
Evicting CPU : 1   Block CPU : 2
Spy trying to Evict from 0
Hence it doesn't evict!

Checking the next block with LRU 14

Same Core!
It's own block 14 is being evicted 

Different Cores!
Evicting CPU : 1   Block CPU : 2
Spy trying to Evict from 0
Hence it doesn't evict!

Checking the next block with LRU 14

Different Cores!
Evicting CPU : 1   Block CPU : 2
Spy trying to Evict from 0
Hence it doesn't evict!

Checking the next block with LRU 13

Same Core!
It's own block 13 is being evicted 

Different Cores!
Evicting CPU : 2   Block CPU : 1
Spy trying to Evict from 0
Hence it doesn't evict!

Checking the next block with LRU 14

Same Core!
It's own block 14 is being evicted 

Same Core!
It's own block 15 is being evicted 

Same Core!
It's own block 15 is being evicted 

Same Core!
It's own block 15 is being evicted 

Different Cores!
Evicting CPU : 1   Block CPU : 2
Spy trying to Evict from 0
Hence it doesn't evict!

Checking the next block with LRU 14

Same Core!
It's own block 14 is being evicted 

Different Cores!
Evicting CPU : 3   Block CPU : 0
Spy trying to Evict from 0
Hence it doesn't evict!

Checking the next block with LRU 14

Same Core!
It's own block 14 is being evicted 

Different Cores!
Evicting CPU : 3   Block CPU : 0
Spy trying to Evict from 0
Hence it doesn't evict!

Checking the next block with LRU 14

Different Cores!
Evicting CPU : 3   Block CPU : 2
Spy trying to Evict from 0
Hence it doesn't evict!

Checking the next block with LRU 13

Different Cores!
Evicting CPU : 3   Block CPU : 1
Spy trying to Evict from 0
Hence it doesn't evict!

Checking the next block with LRU 12

Different Cores!
Evicting CPU : 3   Block CPU : 2
Spy trying to Evict from 0
Hence it doesn't evict!

Checking the next block with LRU 11

Same Core!
It's own block 11 is being evicted 

Randomly Evicting  11

Different Cores!
Evicting CPU : 1   Block CPU : 2
Spy trying to Evict from 0
Hence it doesn't evict!

Checking the next block with LRU 14

Different Cores!
Evicting CPU : 1   Block CPU : 0
Spy trying to Evict from 0
Hence it doesn't evict!

Checking the next block with LRU 13

Different Cores!
Evicting CPU : 1   Block CPU : 3
Spy trying to Evict from 0
Hence it doesn't evict!

Checking the next block with LRU 12

Different Cores!
Evicting CPU : 1   Block CPU : 3
Spy trying to Evict from 0
Hence it doesn't evict!

Checking the next block with LRU 11

Different Cores!
Evicting CPU : 1   Block CPU : 2
Spy trying to Evict from 0
Hence it doesn't evict!

Checking the next block with LRU 10

Randomly Evicting  11

Different Cores!
Evicting CPU : 3   Block CPU : 0
Spy trying to Evict from 0
Hence it doesn't evict!

Checking the next block with LRU 14

Different Cores!
Evicting CPU : 3   Block CPU : 0
Spy trying to Evict from 0
Hence it doesn't evict!

Checking the next block with LRU 13

Different Cores!
Evicting CPU : 3   Block CPU : 2
Spy trying to Evict from 0
Hence it doesn't evict!

Checking the next block with LRU 12

Different Cores!
Evicting CPU : 3   Block CPU : 1
Spy trying to Evict from 0
Hence it doesn't evict!

Checking the next block with LRU 11

Different Cores!
Evicting CPU : 3   Block CPU : 1
Spy trying to Evict from 0
Hence it doesn't evict!

Checking the next block with LRU 10

Randomly Evicting  11

Different Cores!
Evicting CPU : 1   Block CPU : 2
Spy trying to Evict from 0
Hence it doesn't evict!

Checking the next block with LRU 14

Different Cores!
Evicting CPU : 1   Block CPU : 0
Spy trying to Evict from 0
Hence it doesn't evict!

Checking the next block with LRU 13

Different Cores!
Evicting CPU : 1   Block CPU : 0
Spy trying to Evict from 0
Hence it doesn't evict!

Checking the next block with LRU 12

Different Cores!
Evicting CPU : 1   Block CPU : 0
Spy trying to Evict from 0
Hence it doesn't evict!

Checking the next block with LRU 11

Different Cores!
Evicting CPU : 1   Block CPU : 0
Spy trying to Evict from 0
Hence it doesn't evict!

Checking the next block with LRU 10

Randomly Evicting  11

Same Core!
It's own block 15 is being evicted 

Different Cores!
Evicting CPU : 0   Block CPU : 3
Evicting from L2C with CPU 0

Evicting from L2C with CPU 0

Evicting from LLC with CPU 0

It's own block 15 is being evicted 

Different Cores!
Evicting CPU : 2   Block CPU : 0
Spy trying to Evict from 0
Hence it doesn't evict!

Checking the next block with LRU 14

Same Core!
It's own block 14 is being evicted 

Different Cores!
Evicting CPU : 3   Block CPU : 0
Spy trying to Evict from 0
Hence it doesn't evict!

Checking the next block with LRU 14

Different Cores!
Evicting CPU : 3   Block CPU : 2
Spy trying to Evict from 0
Hence it doesn't evict!

Checking the next block with LRU 13

Same Core!
It's own block 13 is being evicted 

Different Cores!
Evicting CPU : 1   Block CPU : 3
Spy trying to Evict from 0
Hence it doesn't evict!

Checking the next block with LRU 14

Different Cores!
Evicting CPU : 1   Block CPU : 2
Spy trying to Evict from 0
Hence it doesn't evict!

Checking the next block with LRU 13

Different Cores!
Evicting CPU : 1   Block CPU : 0
Spy trying to Evict from 0
Hence it doesn't evict!

Checking the next block with LRU 12

Same Core!
It's own block 12 is being evicted 

Different Cores!
Evicting CPU : 3   Block CPU : 2
Spy trying to Evict from 0
Hence it doesn't evict!

Checking the next block with LRU 14

Different Cores!
Evicting CPU : 3   Block CPU : 2
Spy trying to Evict from 0
Hence it doesn't evict!

Checking the next block with LRU 13

Different Cores!
Evicting CPU : 3   Block CPU : 2
Spy trying to Evict from 0
Hence it doesn't evict!

Checking the next block with LRU 12

Different Cores!
Evicting CPU : 3   Block CPU : 1
Spy trying to Evict from 0
Hence it doesn't evict!

Checking the next block with LRU 11

Different Cores!
Evicting CPU : 3   Block CPU : 1
Spy trying to Evict from 0
Hence it doesn't evict!

Checking the next block with LRU 10

Randomly Evicting  11

Different Cores!
Evicting CPU : 2   Block CPU : 3
Spy trying to Evict from 0
Hence it doesn't evict!

Checking the next block with LRU 14

Different Cores!
Evicting CPU : 2   Block CPU : 0
Spy trying to Evict from 0
Hence it doesn't evict!

Checking the next block with LRU 13

Different Cores!
Evicting CPU : 2   Block CPU : 0
Spy trying to Evict from 0
Hence it doesn't evict!

Checking the next block with LRU 12

Same Core!
It's own block 12 is being evicted 

Different Cores!
Evicting CPU : 3   Block CPU : 1
Spy trying to Evict from 0
Hence it doesn't evict!

Checking the next block with LRU 14

Different Cores!
Evicting CPU : 3   Block CPU : 1
Spy trying to Evict from 0
Hence it doesn't evict!

Checking the next block with LRU 13

Same Core!
It's own block 13 is being evicted 

Different Cores!
Evicting CPU : 2   Block CPU : 3
Spy trying to Evict from 0
Hence it doesn't evict!

Checking the next block with LRU 14

Same Core!
It's own block 14 is being evicted 

Different Cores!
Evicting CPU : 0   Block CPU : 3
Evicting from L2C with CPU 0

Evicting from L2C with CPU 0

Evicting from LLC with CPU 0

It's own block 15 is being evicted 

Different Cores!
Evicting CPU : 2   Block CPU : 1
Spy trying to Evict from 0
Hence it doesn't evict!

Checking the next block with LRU 14

Same Core!
It's own block 14 is being evicted 

Different Cores!
Evicting CPU : 1   Block CPU : 0
Spy trying to Evict from 0
Hence it doesn't evict!

Checking the next block with LRU 14

Different Cores!
Evicting CPU : 1   Block CPU : 0
Spy trying to Evict from 0
Hence it doesn't evict!

Checking the next block with LRU 13

Different Cores!
Evicting CPU : 1   Block CPU : 0
Spy trying to Evict from 0
Hence it doesn't evict!

Checking the next block with LRU 12

Different Cores!
Evicting CPU : 1   Block CPU : 2
Spy trying to Evict from 0
Hence it doesn't evict!

Checking the next block with LRU 11

Different Cores!
Evicting CPU : 1   Block CPU : 2
Spy trying to Evict from 0
Hence it doesn't evict!

Checking the next block with LRU 10

Randomly Evicting  11

Different Cores!
Evicting CPU : 2   Block CPU : 0
Spy trying to Evict from 0
Hence it doesn't evict!

Checking the next block with LRU 14

Different Cores!
Evicting CPU : 2   Block CPU : 3
Spy trying to Evict from 0
Hence it doesn't evict!

Checking the next block with LRU 13

Different Cores!
Evicting CPU : 2   Block CPU : 3
Spy trying to Evict from 0
Hence it doesn't evict!

Checking the next block with LRU 12

Different Cores!
Evicting CPU : 2   Block CPU : 3
Spy trying to Evict from 0
Hence it doesn't evict!

Checking the next block with LRU 11

Same Core!
It's own block 11 is being evicted 

Randomly Evicting  11

Different Cores!
Evicting CPU : 2   Block CPU : 3
Spy trying to Evict from 0
Hence it doesn't evict!

Checking the next block with LRU 14

Different Cores!
Evicting CPU : 2   Block CPU : 1
Spy trying to Evict from 0
Hence it doesn't evict!

Checking the next block with LRU 13

Different Cores!
Evicting CPU : 2   Block CPU : 1
Spy trying to Evict from 0
Hence it doesn't evict!

Checking the next block with LRU 12

Same Core!
It's own block 12 is being evicted 

Different Cores!
Evicting CPU : 2   Block CPU : 1
Spy trying to Evict from 0
Hence it doesn't evict!

Checking the next block with LRU 14

Same Core!
It's own block 14 is being evicted 

Same Core!
It's own block 15 is being evicted 

Same Core!
It's own block 15 is being evicted 

Same Core!
It's own block 15 is being evicted 

Different Cores!
Evicting CPU : 2   Block CPU : 0
Spy trying to Evict from 0
Hence it doesn't evict!

Checking the next block with LRU 14

Different Cores!
Evicting CPU : 2   Block CPU : 3
Spy trying to Evict from 0
Hence it doesn't evict!

Checking the next block with LRU 13

Different Cores!
Evicting CPU : 2   Block CPU : 3
Spy trying to Evict from 0
Hence it doesn't evict!

Checking the next block with LRU 12

Different Cores!
Evicting CPU : 2   Block CPU : 3
Spy trying to Evict from 0
Hence it doesn't evict!

Checking the next block with LRU 11

Different Cores!
Evicting CPU : 2   Block CPU : 3
Spy trying to Evict from 0
Hence it doesn't evict!

Checking the next block with LRU 10

Randomly Evicting  11

Different Cores!
Evicting CPU : 2   Block CPU : 0
Spy trying to Evict from 0
Hence it doesn't evict!

Checking the next block with LRU 14

Different Cores!
Evicting CPU : 2   Block CPU : 3
Spy trying to Evict from 0
Hence it doesn't evict!

Checking the next block with LRU 13

Same Core!
It's own block 13 is being evicted 

Different Cores!
Evicting CPU : 2   Block CPU : 0
Spy trying to Evict from 0
Hence it doesn't evict!

Checking the next block with LRU 14

Different Cores!
Evicting CPU : 2   Block CPU : 0
Spy trying to Evict from 0
Hence it doesn't evict!

Checking the next block with LRU 13

Different Cores!
Evicting CPU : 2   Block CPU : 1
Spy trying to Evict from 0
Hence it doesn't evict!

Checking the next block with LRU 12

Different Cores!
Evicting CPU : 2   Block CPU : 0
Spy trying to Evict from 0
Hence it doesn't evict!

Checking the next block with LRU 11

Different Cores!
Evicting CPU : 2   Block CPU : 1
Spy trying to Evict from 0
Hence it doesn't evict!

Checking the next block with LRU 10

Randomly Evicting  11

Different Cores!
Evicting CPU : 2   Block CPU : 0
Spy trying to Evict from 0
Hence it doesn't evict!

Checking the next block with LRU 14

Same Core!
It's own block 14 is being evicted 

Same Core!
It's own block 15 is being evicted 

Different Cores!
Evicting CPU : 2   Block CPU : 0
Spy trying to Evict from 0
Hence it doesn't evict!

Checking the next block with LRU 14

Same Core!
It's own block 14 is being evicted 

Different Cores!
Evicting CPU : 3   Block CPU : 0
Spy trying to Evict from 0
Hence it doesn't evict!

Checking the next block with LRU 14

Same Core!
It's own block 14 is being evicted 

Different Cores!
Evicting CPU : 2   Block CPU : 3
Spy trying to Evict from 0
Hence it doesn't evict!

Checking the next block with LRU 14

Different Cores!
Evicting CPU : 2   Block CPU : 1
Spy trying to Evict from 0
Hence it doesn't evict!

Checking the next block with LRU 13

Different Cores!
Evicting CPU : 2   Block CPU : 1
Spy trying to Evict from 0
Hence it doesn't evict!

Checking the next block with LRU 12

Same Core!
It's own block 12 is being evicted 

Different Cores!
Evicting CPU : 3   Block CPU : 2
Spy trying to Evict from 0
Hence it doesn't evict!

Checking the next block with LRU 14

Different Cores!
Evicting CPU : 3   Block CPU : 0
Spy trying to Evict from 0
Hence it doesn't evict!

Checking the next block with LRU 13

Same Core!
It's own block 13 is being evicted 

Different Cores!
Evicting CPU : 1   Block CPU : 3
Spy trying to Evict from 0
Hence it doesn't evict!

Checking the next block with LRU 14

Same Core!
It's own block 14 is being evicted 

Different Cores!
Evicting CPU : 2   Block CPU : 1
Spy trying to Evict from 0
Hence it doesn't evict!

Checking the next block with LRU 14

Different Cores!
Evicting CPU : 2   Block CPU : 0
Spy trying to Evict from 0
Hence it doesn't evict!

Checking the next block with LRU 13

Different Cores!
Evicting CPU : 2   Block CPU : 1
Spy trying to Evict from 0
Hence it doesn't evict!

Checking the next block with LRU 12

Different Cores!
Evicting CPU : 2   Block CPU : 3
Spy trying to Evict from 0
Hence it doesn't evict!

Checking the next block with LRU 11

Different Cores!
Evicting CPU : 2   Block CPU : 1
Spy trying to Evict from 0
Hence it doesn't evict!

Checking the next block with LRU 10

Randomly Evicting  11

Different Cores!
Evicting CPU : 3   Block CPU : 2
Spy trying to Evict from 0
Hence it doesn't evict!

Checking the next block with LRU 14

Different Cores!
Evicting CPU : 3   Block CPU : 2
Spy trying to Evict from 0
Hence it doesn't evict!

Checking the next block with LRU 13

Different Cores!
Evicting CPU : 3   Block CPU : 0
Spy trying to Evict from 0
Hence it doesn't evict!

Checking the next block with LRU 12

Same Core!
It's own block 12 is being evicted 

Different Cores!
Evicting CPU : 3   Block CPU : 1
Spy trying to Evict from 0
Hence it doesn't evict!

Checking the next block with LRU 14

Same Core!
It's own block 14 is being evicted 

Different Cores!
Evicting CPU : 2   Block CPU : 3
Spy trying to Evict from 0
Hence it doesn't evict!

Checking the next block with LRU 14

Same Core!
It's own block 14 is being evicted 

Same Core!
It's own block 15 is being evicted 

Different Cores!
Evicting CPU : 2   Block CPU : 0
Spy trying to Evict from 0
Hence it doesn't evict!

Checking the next block with LRU 14

Same Core!
It's own block 14 is being evicted 

Same Core!
It's own block 15 is being evicted 

Different Cores!
Evicting CPU : 3   Block CPU : 2
Spy trying to Evict from 0
Hence it doesn't evict!

Checking the next block with LRU 14

Different Cores!
Evicting CPU : 3   Block CPU : 0
Spy trying to Evict from 0
Hence it doesn't evict!

Checking the next block with LRU 13

Same Core!
It's own block 13 is being evicted 

Different Cores!
Evicting CPU : 3   Block CPU : 0
Spy trying to Evict from 0
Hence it doesn't evict!

Checking the next block with LRU 14

Different Cores!
Evicting CPU : 3   Block CPU : 2
Spy trying to Evict from 0
Hence it doesn't evict!

Checking the next block with LRU 13

Different Cores!
Evicting CPU : 3   Block CPU : 1
Spy trying to Evict from 0
Hence it doesn't evict!

Checking the next block with LRU 12

Same Core!
It's own block 12 is being evicted 

Same Core!
It's own block 15 is being evicted 

Different Cores!
Evicting CPU : 0   Block CPU : 2
Evicting from L2C with CPU 0

Evicting from L2C with CPU 0

Evicting from LLC with CPU 0

It's own block 15 is being evicted 

Different Cores!
Evicting CPU : 2   Block CPU : 0
Spy trying to Evict from 0
Hence it doesn't evict!

Checking the next block with LRU 14

Different Cores!
Evicting CPU : 2   Block CPU : 1
Spy trying to Evict from 0
Hence it doesn't evict!

Checking the next block with LRU 13

Different Cores!
Evicting CPU : 2   Block CPU : 3
Spy trying to Evict from 0
Hence it doesn't evict!

Checking the next block with LRU 12

Different Cores!
Evicting CPU : 2   Block CPU : 1
Spy trying to Evict from 0
Hence it doesn't evict!

Checking the next block with LRU 11

Different Cores!
Evicting CPU : 2   Block CPU : 0
Spy trying to Evict from 0
Hence it doesn't evict!

Checking the next block with LRU 10

Randomly Evicting  11

Different Cores!
Evicting CPU : 3   Block CPU : 0
Spy trying to Evict from 0
Hence it doesn't evict!

Checking the next block with LRU 14

Different Cores!
Evicting CPU : 3   Block CPU : 1
Spy trying to Evict from 0
Hence it doesn't evict!

Checking the next block with LRU 13

Different Cores!
Evicting CPU : 3   Block CPU : 1
Spy trying to Evict from 0
Hence it doesn't evict!

Checking the next block with LRU 12

Different Cores!
Evicting CPU : 3   Block CPU : 0
Spy trying to Evict from 0
Hence it doesn't evict!

Checking the next block with LRU 11

Same Core!
It's own block 11 is being evicted 

Randomly Evicting  11

Different Cores!
Evicting CPU : 1   Block CPU : 0
Spy trying to Evict from 0
Hence it doesn't evict!

Checking the next block with LRU 14

Different Cores!
Evicting CPU : 1   Block CPU : 3
Spy trying to Evict from 0
Hence it doesn't evict!

Checking the next block with LRU 13

Different Cores!
Evicting CPU : 1   Block CPU : 3
Spy trying to Evict from 0
Hence it doesn't evict!

Checking the next block with LRU 12

Different Cores!
Evicting CPU : 1   Block CPU : 3
Spy trying to Evict from 0
Hence it doesn't evict!

Checking the next block with LRU 11

Same Core!
It's own block 11 is being evicted 

Randomly Evicting  11

Different Cores!
Evicting CPU : 0   Block CPU : 2
Evicting from L2C with CPU 0

Evicting from L2C with CPU 0

Evicting from LLC with CPU 0

It's own block 15 is being evicted 

Different Cores!
Evicting CPU : 2   Block CPU : 1
Spy trying to Evict from 0
Hence it doesn't evict!

Checking the next block with LRU 14

Different Cores!
Evicting CPU : 2   Block CPU : 0
Spy trying to Evict from 0
Hence it doesn't evict!

Checking the next block with LRU 13

Same Core!
It's own block 13 is being evicted 

Different Cores!
Evicting CPU : 0   Block CPU : 2
Evicting from L2C with CPU 0

Evicting from L2C with CPU 0

Evicting from LLC with CPU 0

It's own block 15 is being evicted 

Different Cores!
Evicting CPU : 3   Block CPU : 0
Spy trying to Evict from 0
Hence it doesn't evict!

Checking the next block with LRU 14

Same Core!
It's own block 14 is being evicted 

Different Cores!
Evicting CPU : 0   Block CPU : 3
Evicting from L2C with CPU 0

Evicting from L2C with CPU 0

Evicting from LLC with CPU 0

It's own block 15 is being evicted 

Different Cores!
Evicting CPU : 0   Block CPU : 1
Evicting from L2C with CPU 0

Evicting from L2C with CPU 0

Evicting from LLC with CPU 0

It's own block 15 is being evicted 

Different Cores!
Evicting CPU : 1   Block CPU : 0
Spy trying to Evict from 0
Hence it doesn't evict!

Checking the next block with LRU 14

Different Cores!
Evicting CPU : 1   Block CPU : 2
Spy trying to Evict from 0
Hence it doesn't evict!

Checking the next block with LRU 13

Same Core!
It's own block 13 is being evicted 

Different Cores!
Evicting CPU : 0   Block CPU : 2
Evicting from L2C with CPU 0

Evicting from L2C with CPU 0

Evicting from LLC with CPU 0

It's own block 15 is being evicted 

Different Cores!
Evicting CPU : 1   Block CPU : 0
Spy trying to Evict from 0
Hence it doesn't evict!

Checking the next block with LRU 14

Different Cores!
Evicting CPU : 1   Block CPU : 3
Spy trying to Evict from 0
Hence it doesn't evict!

Checking the next block with LRU 13

Different Cores!
Evicting CPU : 1   Block CPU : 0
Spy trying to Evict from 0
Hence it doesn't evict!

Checking the next block with LRU 12

Different Cores!
Evicting CPU : 1   Block CPU : 2
Spy trying to Evict from 0
Hence it doesn't evict!

Checking the next block with LRU 11

Different Cores!
Evicting CPU : 1   Block CPU : 2
Spy trying to Evict from 0
Hence it doesn't evict!

Checking the next block with LRU 10

Randomly Evicting  11

Same Core!
It's own block 15 is being evicted 

Different Cores!
Evicting CPU : 1   Block CPU : 0
Spy trying to Evict from 0
Hence it doesn't evict!

Checking the next block with LRU 14

Same Core!
It's own block 14 is being evicted 

Same Core!
It's own block 15 is being evicted 

Same Core!
It's own block 15 is being evicted 

Same Core!
It's own block 15 is being evicted 

Different Cores!
Evicting CPU : 0   Block CPU : 3
Evicting from L2C with CPU 0

Evicting from L2C with CPU 0

Evicting from LLC with CPU 0

It's own block 15 is being evicted 

Same Core!
It's own block 15 is being evicted 

Same Core!
It's own block 15 is being evicted 

Different Cores!
Evicting CPU : 1   Block CPU : 0
Spy trying to Evict from 0
Hence it doesn't evict!

Checking the next block with LRU 14

Same Core!
It's own block 14 is being evicted 

Different Cores!
Evicting CPU : 3   Block CPU : 2
Spy trying to Evict from 0
Hence it doesn't evict!

Checking the next block with LRU 14

Same Core!
It's own block 14 is being evicted 

Different Cores!
Evicting CPU : 2   Block CPU : 3
Spy trying to Evict from 0
Hence it doesn't evict!

Checking the next block with LRU 14

Different Cores!
Evicting CPU : 2   Block CPU : 0
Spy trying to Evict from 0
Hence it doesn't evict!

Checking the next block with LRU 13

Same Core!
It's own block 13 is being evicted 

Different Cores!
Evicting CPU : 0   Block CPU : 2
Evicting from L2C with CPU 0

Evicting from L2C with CPU 0

Evicting from LLC with CPU 0

It's own block 15 is being evicted 

Different Cores!
Evicting CPU : 3   Block CPU : 0
Spy trying to Evict from 0
Hence it doesn't evict!

Checking the next block with LRU 14

Different Cores!
Evicting CPU : 3   Block CPU : 1
Spy trying to Evict from 0
Hence it doesn't evict!

Checking the next block with LRU 13

Same Core!
It's own block 13 is being evicted 

Different Cores!
Evicting CPU : 0   Block CPU : 1
Evicting from L2C with CPU 0

Evicting from L2C with CPU 0

Evicting from LLC with CPU 0

It's own block 15 is being evicted 

Different Cores!
Evicting CPU : 3   Block CPU : 2
Spy trying to Evict from 0
Hence it doesn't evict!

Checking the next block with LRU 14

Different Cores!
Evicting CPU : 3   Block CPU : 0
Spy trying to Evict from 0
Hence it doesn't evict!

Checking the next block with LRU 13

Different Cores!
Evicting CPU : 3   Block CPU : 0
Spy trying to Evict from 0
Hence it doesn't evict!

Checking the next block with LRU 12

Same Core!
It's own block 12 is being evicted 

Same Core!
It's own block 15 is being evicted 

Same Core!
It's own block 15 is being evicted 

Different Cores!
Evicting CPU : 1   Block CPU : 3
Spy trying to Evict from 0
Hence it doesn't evict!

Checking the next block with LRU 14

Different Cores!
Evicting CPU : 1   Block CPU : 2
Spy trying to Evict from 0
Hence it doesn't evict!

Checking the next block with LRU 13

Different Cores!
Evicting CPU : 1   Block CPU : 3
Spy trying to Evict from 0
Hence it doesn't evict!

Checking the next block with LRU 12

Different Cores!
Evicting CPU : 1   Block CPU : 0
Spy trying to Evict from 0
Hence it doesn't evict!

Checking the next block with LRU 11

Same Core!
It's own block 11 is being evicted 

Randomly Evicting  11

Different Cores!
Evicting CPU : 1   Block CPU : 2
Spy trying to Evict from 0
Hence it doesn't evict!

Checking the next block with LRU 14

Different Cores!
Evicting CPU : 1   Block CPU : 2
Spy trying to Evict from 0
Hence it doesn't evict!

Checking the next block with LRU 13

Different Cores!
Evicting CPU : 1   Block CPU : 2
Spy trying to Evict from 0
Hence it doesn't evict!

Checking the next block with LRU 12

Different Cores!
Evicting CPU : 1   Block CPU : 2
Spy trying to Evict from 0
Hence it doesn't evict!

Checking the next block with LRU 11

Same Core!
It's own block 11 is being evicted 

Randomly Evicting  11

Same Core!
It's own block 15 is being evicted 

Different Cores!
Evicting CPU : 2   Block CPU : 1
Spy trying to Evict from 0
Hence it doesn't evict!

Checking the next block with LRU 14

Same Core!
It's own block 14 is being evicted 

Different Cores!
Evicting CPU : 2   Block CPU : 0
Spy trying to Evict from 0
Hence it doesn't evict!

Checking the next block with LRU 14

Same Core!
It's own block 14 is being evicted 

Same Core!
It's own block 15 is being evicted 

Different Cores!
Evicting CPU : 2   Block CPU : 1
Spy trying to Evict from 0
Hence it doesn't evict!

Checking the next block with LRU 14

Different Cores!
Evicting CPU : 2   Block CPU : 0
Spy trying to Evict from 0
Hence it doesn't evict!

Checking the next block with LRU 13

Different Cores!
Evicting CPU : 2   Block CPU : 1
Spy trying to Evict from 0
Hence it doesn't evict!

Checking the next block with LRU 12

Different Cores!
Evicting CPU : 2   Block CPU : 0
Spy trying to Evict from 0
Hence it doesn't evict!

Checking the next block with LRU 11

Different Cores!
Evicting CPU : 2   Block CPU : 1
Spy trying to Evict from 0
Hence it doesn't evict!

Checking the next block with LRU 10

Randomly Evicting  11

Different Cores!
Evicting CPU : 2   Block CPU : 0
Spy trying to Evict from 0
Hence it doesn't evict!

Checking the next block with LRU 14

Different Cores!
Evicting CPU : 2   Block CPU : 0
Spy trying to Evict from 0
Hence it doesn't evict!

Checking the next block with LRU 13

Different Cores!
Evicting CPU : 2   Block CPU : 1
Spy trying to Evict from 0
Hence it doesn't evict!

Checking the next block with LRU 12

Different Cores!
Evicting CPU : 2   Block CPU : 1
Spy trying to Evict from 0
Hence it doesn't evict!

Checking the next block with LRU 11

Different Cores!
Evicting CPU : 2   Block CPU : 0
Spy trying to Evict from 0
Hence it doesn't evict!

Checking the next block with LRU 10

Randomly Evicting  11

Same Core!
It's own block 15 is being evicted 

Different Cores!
Evicting CPU : 0   Block CPU : 1
Evicting from L2C with CPU 0

Evicting from L2C with CPU 0

Evicting from LLC with CPU 0

It's own block 15 is being evicted 

Different Cores!
Evicting CPU : 1   Block CPU : 0
Spy trying to Evict from 0
Hence it doesn't evict!

Checking the next block with LRU 14

Different Cores!
Evicting CPU : 1   Block CPU : 3
Spy trying to Evict from 0
Hence it doesn't evict!

Checking the next block with LRU 13

Different Cores!
Evicting CPU : 1   Block CPU : 2
Spy trying to Evict from 0
Hence it doesn't evict!

Checking the next block with LRU 12

Same Core!
It's own block 12 is being evicted 

Different Cores!
Evicting CPU : 3   Block CPU : 2
Spy trying to Evict from 0
Hence it doesn't evict!

Checking the next block with LRU 14

Different Cores!
Evicting CPU : 3   Block CPU : 2
Spy trying to Evict from 0
Hence it doesn't evict!

Checking the next block with LRU 13

Different Cores!
Evicting CPU : 3   Block CPU : 1
Spy trying to Evict from 0
Hence it doesn't evict!

Checking the next block with LRU 12

Different Cores!
Evicting CPU : 3   Block CPU : 1
Spy trying to Evict from 0
Hence it doesn't evict!

Checking the next block with LRU 11

Different Cores!
Evicting CPU : 3   Block CPU : 0
Spy trying to Evict from 0
Hence it doesn't evict!

Checking the next block with LRU 10

Randomly Evicting  11

Same Core!
It's own block 15 is being evicted 

Different Cores!
Evicting CPU : 2   Block CPU : 0
Spy trying to Evict from 0
Hence it doesn't evict!

Checking the next block with LRU 14

Different Cores!
Evicting CPU : 2   Block CPU : 0
Spy trying to Evict from 0
Hence it doesn't evict!

Checking the next block with LRU 13

Same Core!
It's own block 13 is being evicted 

Different Cores!
Evicting CPU : 3   Block CPU : 1
Spy trying to Evict from 0
Hence it doesn't evict!

Checking the next block with LRU 14

Different Cores!
Evicting CPU : 3   Block CPU : 2
Spy trying to Evict from 0
Hence it doesn't evict!

Checking the next block with LRU 13

Different Cores!
Evicting CPU : 3   Block CPU : 1
Spy trying to Evict from 0
Hence it doesn't evict!

Checking the next block with LRU 12

Same Core!
It's own block 12 is being evicted 

Different Cores!
Evicting CPU : 3   Block CPU : 0
Spy trying to Evict from 0
Hence it doesn't evict!

Checking the next block with LRU 14

Different Cores!
Evicting CPU : 3   Block CPU : 1
Spy trying to Evict from 0
Hence it doesn't evict!

Checking the next block with LRU 13

Same Core!
It's own block 13 is being evicted 

Different Cores!
Evicting CPU : 3   Block CPU : 2
Spy trying to Evict from 0
Hence it doesn't evict!

Checking the next block with LRU 14

Different Cores!
Evicting CPU : 3   Block CPU : 0
Spy trying to Evict from 0
Hence it doesn't evict!

Checking the next block with LRU 13

Different Cores!
Evicting CPU : 3   Block CPU : 2
Spy trying to Evict from 0
Hence it doesn't evict!

Checking the next block with LRU 12

Different Cores!
Evicting CPU : 3   Block CPU : 2
Spy trying to Evict from 0
Hence it doesn't evict!

Checking the next block with LRU 11

Different Cores!
Evicting CPU : 3   Block CPU : 2
Spy trying to Evict from 0
Hence it doesn't evict!

Checking the next block with LRU 10

Randomly Evicting  11

Different Cores!
Evicting CPU : 0   Block CPU : 1
Evicting from L2C with CPU 0

Evicting from L2C with CPU 0

Evicting from LLC with CPU 0

It's own block 15 is being evicted 

Different Cores!
Evicting CPU : 0   Block CPU : 1
Evicting from L2C with CPU 0

Evicting from L2C with CPU 0

Evicting from LLC with CPU 0

It's own block 15 is being evicted 

Different Cores!
Evicting CPU : 3   Block CPU : 2
Spy trying to Evict from 0
Hence it doesn't evict!

Checking the next block with LRU 14

Different Cores!
Evicting CPU : 3   Block CPU : 2
Spy trying to Evict from 0
Hence it doesn't evict!

Checking the next block with LRU 13

Different Cores!
Evicting CPU : 3   Block CPU : 0
Spy trying to Evict from 0
Hence it doesn't evict!

Checking the next block with LRU 12

Same Core!
It's own block 12 is being evicted 

Different Cores!
Evicting CPU : 1   Block CPU : 0
Spy trying to Evict from 0
Hence it doesn't evict!

Checking the next block with LRU 14

Different Cores!
Evicting CPU : 1   Block CPU : 2
Spy trying to Evict from 0
Hence it doesn't evict!

Checking the next block with LRU 13

Different Cores!
Evicting CPU : 1   Block CPU : 2
Spy trying to Evict from 0
Hence it doesn't evict!

Checking the next block with LRU 12

Different Cores!
Evicting CPU : 1   Block CPU : 0
Spy trying to Evict from 0
Hence it doesn't evict!

Checking the next block with LRU 11

Different Cores!
Evicting CPU : 1   Block CPU : 0
Spy trying to Evict from 0
Hence it doesn't evict!

Checking the next block with LRU 10

Randomly Evicting  11

Same Core!
It's own block 15 is being evicted 

Different Cores!
Evicting CPU : 2   Block CPU : 3
Spy trying to Evict from 0
Hence it doesn't evict!

Checking the next block with LRU 14

Different Cores!
Evicting CPU : 2   Block CPU : 3
Spy trying to Evict from 0
Hence it doesn't evict!

Checking the next block with LRU 13

Same Core!
It's own block 13 is being evicted 

Different Cores!
Evicting CPU : 3   Block CPU : 0
Spy trying to Evict from 0
Hence it doesn't evict!

Checking the next block with LRU 14

Different Cores!
Evicting CPU : 3   Block CPU : 0
Spy trying to Evict from 0
Hence it doesn't evict!

Checking the next block with LRU 13

Same Core!
It's own block 13 is being evicted 

Different Cores!
Evicting CPU : 1   Block CPU : 2
Spy trying to Evict from 0
Hence it doesn't evict!

Checking the next block with LRU 14

Different Cores!
Evicting CPU : 1   Block CPU : 2
Spy trying to Evict from 0
Hence it doesn't evict!

Checking the next block with LRU 13

Different Cores!
Evicting CPU : 1   Block CPU : 0
Spy trying to Evict from 0
Hence it doesn't evict!

Checking the next block with LRU 12

Different Cores!
Evicting CPU : 1   Block CPU : 3
Spy trying to Evict from 0
Hence it doesn't evict!

Checking the next block with LRU 11

Different Cores!
Evicting CPU : 1   Block CPU : 0
Spy trying to Evict from 0
Hence it doesn't evict!

Checking the next block with LRU 10

Randomly Evicting  11

Same Core!
It's own block 15 is being evicted 

Different Cores!
Evicting CPU : 3   Block CPU : 0
Spy trying to Evict from 0
Hence it doesn't evict!

Checking the next block with LRU 14

Same Core!
It's own block 14 is being evicted 

Different Cores!
Evicting CPU : 3   Block CPU : 1
Spy trying to Evict from 0
Hence it doesn't evict!

Checking the next block with LRU 14

Different Cores!
Evicting CPU : 3   Block CPU : 2
Spy trying to Evict from 0
Hence it doesn't evict!

Checking the next block with LRU 13

Different Cores!
Evicting CPU : 3   Block CPU : 1
Spy trying to Evict from 0
Hence it doesn't evict!

Checking the next block with LRU 12

Different Cores!
Evicting CPU : 3   Block CPU : 1
Spy trying to Evict from 0
Hence it doesn't evict!

Checking the next block with LRU 11

Different Cores!
Evicting CPU : 3   Block CPU : 1
Spy trying to Evict from 0
Hence it doesn't evict!

Checking the next block with LRU 10

Randomly Evicting  11

Different Cores!
Evicting CPU : 2   Block CPU : 0
Spy trying to Evict from 0
Hence it doesn't evict!

Checking the next block with LRU 14

Same Core!
It's own block 14 is being evicted 

Same Core!
It's own block 15 is being evicted 

Different Cores!
Evicting CPU : 3   Block CPU : 2
Spy trying to Evict from 0
Hence it doesn't evict!

Checking the next block with LRU 14

Same Core!
It's own block 14 is being evicted 

Different Cores!
Evicting CPU : 1   Block CPU : 0
Spy trying to Evict from 0
Hence it doesn't evict!

Checking the next block with LRU 14

Different Cores!
Evicting CPU : 1   Block CPU : 3
Spy trying to Evict from 0
Hence it doesn't evict!

Checking the next block with LRU 13

Different Cores!
Evicting CPU : 1   Block CPU : 0
Spy trying to Evict from 0
Hence it doesn't evict!

Checking the next block with LRU 12

Same Core!
It's own block 12 is being evicted 

Different Cores!
Evicting CPU : 2   Block CPU : 0
Spy trying to Evict from 0
Hence it doesn't evict!

Checking the next block with LRU 14

Different Cores!
Evicting CPU : 2   Block CPU : 0
Spy trying to Evict from 0
Hence it doesn't evict!

Checking the next block with LRU 13

Different Cores!
Evicting CPU : 2   Block CPU : 1
Spy trying to Evict from 0
Hence it doesn't evict!

Checking the next block with LRU 12

Different Cores!
Evicting CPU : 2   Block CPU : 0
Spy trying to Evict from 0
Hence it doesn't evict!

Checking the next block with LRU 11

Different Cores!
Evicting CPU : 2   Block CPU : 3
Spy trying to Evict from 0
Hence it doesn't evict!

Checking the next block with LRU 10

Randomly Evicting  11

Different Cores!
Evicting CPU : 2   Block CPU : 0
Spy trying to Evict from 0
Hence it doesn't evict!

Checking the next block with LRU 14

Same Core!
It's own block 14 is being evicted 

Same Core!
It's own block 15 is being evicted 

Different Cores!
Evicting CPU : 0   Block CPU : 3
Evicting from L2C with CPU 0

Evicting from L2C with CPU 0

Evicting from LLC with CPU 0

It's own block 15 is being evicted 

Same Core!
It's own block 15 is being evicted 

Different Cores!
Evicting CPU : 0   Block CPU : 1
Evicting from L2C with CPU 0

Evicting from L2C with CPU 0

Evicting from LLC with CPU 0

It's own block 15 is being evicted 

Different Cores!
Evicting CPU : 1   Block CPU : 0
Spy trying to Evict from 0
Hence it doesn't evict!

Checking the next block with LRU 14

Different Cores!
Evicting CPU : 1   Block CPU : 2
Spy trying to Evict from 0
Hence it doesn't evict!

Checking the next block with LRU 13

Different Cores!
Evicting CPU : 1   Block CPU : 0
Spy trying to Evict from 0
Hence it doesn't evict!

Checking the next block with LRU 12

Different Cores!
Evicting CPU : 1   Block CPU : 0
Spy trying to Evict from 0
Hence it doesn't evict!

Checking the next block with LRU 11

Same Core!
It's own block 11 is being evicted 

Randomly Evicting  11

Different Cores!
Evicting CPU : 3   Block CPU : 0
Spy trying to Evict from 0
Hence it doesn't evict!

Checking the next block with LRU 14

Different Cores!
Evicting CPU : 3   Block CPU : 0
Spy trying to Evict from 0
Hence it doesn't evict!

Checking the next block with LRU 13

Same Core!
It's own block 13 is being evicted 

Different Cores!
Evicting CPU : 0   Block CPU : 2
Evicting from L2C with CPU 0

Evicting from L2C with CPU 0

Evicting from LLC with CPU 0

It's own block 15 is being evicted 

Same Core!
It's own block 15 is being evicted 

Different Cores!
Evicting CPU : 3   Block CPU : 2
Spy trying to Evict from 0
Hence it doesn't evict!

Checking the next block with LRU 14

Different Cores!
Evicting CPU : 3   Block CPU : 2
Spy trying to Evict from 0
Hence it doesn't evict!

Checking the next block with LRU 13

Different Cores!
Evicting CPU : 3   Block CPU : 2
Spy trying to Evict from 0
Hence it doesn't evict!

Checking the next block with LRU 12

Different Cores!
Evicting CPU : 3   Block CPU : 2
Spy trying to Evict from 0
Hence it doesn't evict!

Checking the next block with LRU 11

Different Cores!
Evicting CPU : 3   Block CPU : 0
Spy trying to Evict from 0
Hence it doesn't evict!

Checking the next block with LRU 10

Randomly Evicting  11

Different Cores!
Evicting CPU : 1   Block CPU : 2
Spy trying to Evict from 0
Hence it doesn't evict!

Checking the next block with LRU 14

Different Cores!
Evicting CPU : 1   Block CPU : 3
Spy trying to Evict from 0
Hence it doesn't evict!

Checking the next block with LRU 13

Different Cores!
Evicting CPU : 1   Block CPU : 2
Spy trying to Evict from 0
Hence it doesn't evict!

Checking the next block with LRU 12

Different Cores!
Evicting CPU : 1   Block CPU : 2
Spy trying to Evict from 0
Hence it doesn't evict!

Checking the next block with LRU 11

Different Cores!
Evicting CPU : 1   Block CPU : 0
Spy trying to Evict from 0
Hence it doesn't evict!

Checking the next block with LRU 10

Randomly Evicting  11

Different Cores!
Evicting CPU : 1   Block CPU : 2
Spy trying to Evict from 0
Hence it doesn't evict!

Checking the next block with LRU 14

Different Cores!
Evicting CPU : 1   Block CPU : 2
Spy trying to Evict from 0
Hence it doesn't evict!

Checking the next block with LRU 13

Different Cores!
Evicting CPU : 1   Block CPU : 3
Spy trying to Evict from 0
Hence it doesn't evict!

Checking the next block with LRU 12

Different Cores!
Evicting CPU : 1   Block CPU : 0
Spy trying to Evict from 0
Hence it doesn't evict!

Checking the next block with LRU 11

Different Cores!
Evicting CPU : 1   Block CPU : 2
Spy trying to Evict from 0
Hence it doesn't evict!

Checking the next block with LRU 10

Randomly Evicting  11

Different Cores!
Evicting CPU : 2   Block CPU : 3
Spy trying to Evict from 0
Hence it doesn't evict!

Checking the next block with LRU 14

Different Cores!
Evicting CPU : 2   Block CPU : 1
Spy trying to Evict from 0
Hence it doesn't evict!

Checking the next block with LRU 13

Different Cores!
Evicting CPU : 2   Block CPU : 1
Spy trying to Evict from 0
Hence it doesn't evict!

Checking the next block with LRU 12

Different Cores!
Evicting CPU : 2   Block CPU : 0
Spy trying to Evict from 0
Hence it doesn't evict!

Checking the next block with LRU 11

Same Core!
It's own block 11 is being evicted 

Randomly Evicting  11

Different Cores!
Evicting CPU : 2   Block CPU : 0
Spy trying to Evict from 0
Hence it doesn't evict!

Checking the next block with LRU 14

Same Core!
It's own block 14 is being evicted 

Different Cores!
Evicting CPU : 0   Block CPU : 1
Evicting from L2C with CPU 0

Evicting from L2C with CPU 0

Evicting from LLC with CPU 0

It's own block 15 is being evicted 

Different Cores!
Evicting CPU : 1   Block CPU : 0
Spy trying to Evict from 0
Hence it doesn't evict!

Checking the next block with LRU 14

Same Core!
It's own block 14 is being evicted 

Same Core!
It's own block 15 is being evicted 

Same Core!
It's own block 15 is being evicted 

Different Cores!
Evicting CPU : 3   Block CPU : 2
Spy trying to Evict from 0
Hence it doesn't evict!

Checking the next block with LRU 14

Different Cores!
Evicting CPU : 3   Block CPU : 2
Spy trying to Evict from 0
Hence it doesn't evict!

Checking the next block with LRU 13

Same Core!
It's own block 13 is being evicted 

Same Core!
It's own block 15 is being evicted 

Same Core!
It's own block 15 is being evicted 

Same Core!
It's own block 15 is being evicted 

Different Cores!
Evicting CPU : 0   Block CPU : 2
Evicting from L2C with CPU 0

Evicting from L2C with CPU 0

Evicting from LLC with CPU 0

It's own block 15 is being evicted 

Different Cores!
Evicting CPU : 3   Block CPU : 0
Spy trying to Evict from 0
Hence it doesn't evict!

Checking the next block with LRU 14

Different Cores!
Evicting CPU : 3   Block CPU : 2
Spy trying to Evict from 0
Hence it doesn't evict!

Checking the next block with LRU 13

Different Cores!
Evicting CPU : 3   Block CPU : 1
Spy trying to Evict from 0
Hence it doesn't evict!

Checking the next block with LRU 12

Same Core!
It's own block 12 is being evicted 

Different Cores!
Evicting CPU : 3   Block CPU : 1
Spy trying to Evict from 0
Hence it doesn't evict!

Checking the next block with LRU 14

Different Cores!
Evicting CPU : 3   Block CPU : 1
Spy trying to Evict from 0
Hence it doesn't evict!

Checking the next block with LRU 13

Different Cores!
Evicting CPU : 3   Block CPU : 0
Spy trying to Evict from 0
Hence it doesn't evict!

Checking the next block with LRU 12

Different Cores!
Evicting CPU : 3   Block CPU : 1
Spy trying to Evict from 0
Hence it doesn't evict!

Checking the next block with LRU 11

Different Cores!
Evicting CPU : 3   Block CPU : 0
Spy trying to Evict from 0
Hence it doesn't evict!

Checking the next block with LRU 10

Randomly Evicting  11

Same Core!
It's own block 15 is being evicted 

Same Core!
It's own block 15 is being evicted 

Different Cores!
Evicting CPU : 0   Block CPU : 3
Evicting from L2C with CPU 0

Evicting from L2C with CPU 0

Evicting from LLC with CPU 0

It's own block 15 is being evicted 

Different Cores!
Evicting CPU : 1   Block CPU : 0
Spy trying to Evict from 0
Hence it doesn't evict!

Checking the next block with LRU 14

Different Cores!
Evicting CPU : 1   Block CPU : 3
Spy trying to Evict from 0
Hence it doesn't evict!

Checking the next block with LRU 13

Different Cores!
Evicting CPU : 1   Block CPU : 0
Spy trying to Evict from 0
Hence it doesn't evict!

Checking the next block with LRU 12

Different Cores!
Evicting CPU : 1   Block CPU : 2
Spy trying to Evict from 0
Hence it doesn't evict!

Checking the next block with LRU 11

Different Cores!
Evicting CPU : 1   Block CPU : 2
Spy trying to Evict from 0
Hence it doesn't evict!

Checking the next block with LRU 10

Randomly Evicting  11

Different Cores!
Evicting CPU : 3   Block CPU : 1
Spy trying to Evict from 0
Hence it doesn't evict!

Checking the next block with LRU 14

Same Core!
It's own block 14 is being evicted 

Different Cores!
Evicting CPU : 3   Block CPU : 0
Spy trying to Evict from 0
Hence it doesn't evict!

Checking the next block with LRU 14

Different Cores!
Evicting CPU : 3   Block CPU : 2
Spy trying to Evict from 0
Hence it doesn't evict!

Checking the next block with LRU 13

Different Cores!
Evicting CPU : 3   Block CPU : 2
Spy trying to Evict from 0
Hence it doesn't evict!

Checking the next block with LRU 12

Different Cores!
Evicting CPU : 3   Block CPU : 0
Spy trying to Evict from 0
Hence it doesn't evict!

Checking the next block with LRU 11

Different Cores!
Evicting CPU : 3   Block CPU : 1
Spy trying to Evict from 0
Hence it doesn't evict!

Checking the next block with LRU 10

Randomly Evicting  11

Different Cores!
Evicting CPU : 2   Block CPU : 0
Spy trying to Evict from 0
Hence it doesn't evict!

Checking the next block with LRU 14

Same Core!
It's own block 14 is being evicted 

Different Cores!
Evicting CPU : 1   Block CPU : 0
Spy trying to Evict from 0
Hence it doesn't evict!

Checking the next block with LRU 14

Different Cores!
Evicting CPU : 1   Block CPU : 2
Spy trying to Evict from 0
Hence it doesn't evict!

Checking the next block with LRU 13

Same Core!
It's own block 13 is being evicted 

Same Core!
It's own block 15 is being evicted 

Different Cores!
Evicting CPU : 2   Block CPU : 0
Spy trying to Evict from 0
Hence it doesn't evict!

Checking the next block with LRU 14

Different Cores!
Evicting CPU : 2   Block CPU : 1
Spy trying to Evict from 0
Hence it doesn't evict!

Checking the next block with LRU 13

Different Cores!
Evicting CPU : 2   Block CPU : 3
Spy trying to Evict from 0
Hence it doesn't evict!

Checking the next block with LRU 12

Different Cores!
Evicting CPU : 2   Block CPU : 3
Spy trying to Evict from 0
Hence it doesn't evict!

Checking the next block with LRU 11

Same Core!
It's own block 11 is being evicted 

Randomly Evicting  11

Same Core!
It's own block 15 is being evicted 

Different Cores!
Evicting CPU : 2   Block CPU : 0
Spy trying to Evict from 0
Hence it doesn't evict!

Checking the next block with LRU 14

Different Cores!
Evicting CPU : 2   Block CPU : 1
Spy trying to Evict from 0
Hence it doesn't evict!

Checking the next block with LRU 13

Same Core!
It's own block 13 is being evicted 

Different Cores!
Evicting CPU : 3   Block CPU : 1
Spy trying to Evict from 0
Hence it doesn't evict!

Checking the next block with LRU 14

Different Cores!
Evicting CPU : 3   Block CPU : 0
Spy trying to Evict from 0
Hence it doesn't evict!

Checking the next block with LRU 13

Different Cores!
Evicting CPU : 3   Block CPU : 0
Spy trying to Evict from 0
Hence it doesn't evict!

Checking the next block with LRU 12

Different Cores!
Evicting CPU : 3   Block CPU : 1
Spy trying to Evict from 0
Hence it doesn't evict!

Checking the next block with LRU 11

Different Cores!
Evicting CPU : 3   Block CPU : 0
Spy trying to Evict from 0
Hence it doesn't evict!

Checking the next block with LRU 10

Randomly Evicting  11

Different Cores!
Evicting CPU : 3   Block CPU : 1
Spy trying to Evict from 0
Hence it doesn't evict!

Checking the next block with LRU 14

Different Cores!
Evicting CPU : 3   Block CPU : 0
Spy trying to Evict from 0
Hence it doesn't evict!

Checking the next block with LRU 13

Different Cores!
Evicting CPU : 3   Block CPU : 1
Spy trying to Evict from 0
Hence it doesn't evict!

Checking the next block with LRU 12

Same Core!
It's own block 12 is being evicted 

Same Core!
It's own block 15 is being evicted 

Same Core!
It's own block 15 is being evicted 

Different Cores!
Evicting CPU : 0   Block CPU : 2
Evicting from L2C with CPU 0

Evicting from L2C with CPU 0

Evicting from LLC with CPU 0

It's own block 15 is being evicted 

Different Cores!
Evicting CPU : 1   Block CPU : 2
Spy trying to Evict from 0
Hence it doesn't evict!

Checking the next block with LRU 14

Different Cores!
Evicting CPU : 1   Block CPU : 0
Spy trying to Evict from 0
Hence it doesn't evict!

Checking the next block with LRU 13

Different Cores!
Evicting CPU : 1   Block CPU : 0
Spy trying to Evict from 0
Hence it doesn't evict!

Checking the next block with LRU 12

Same Core!
It's own block 12 is being evicted 

Different Cores!
Evicting CPU : 0   Block CPU : 1
Evicting from L2C with CPU 0

Evicting from L2C with CPU 0

Evicting from LLC with CPU 0

It's own block 15 is being evicted 

Different Cores!
Evicting CPU : 0   Block CPU : 3
Evicting from L2C with CPU 0

Evicting from L2C with CPU 0

Evicting from LLC with CPU 0

It's own block 15 is being evicted 

Same Core!
It's own block 15 is being evicted 

Same Core!
It's own block 15 is being evicted 

Different Cores!
Evicting CPU : 0   Block CPU : 3
Evicting from L2C with CPU 0

Evicting from L2C with CPU 0

Evicting from LLC with CPU 0

It's own block 15 is being evicted 

Different Cores!
Evicting CPU : 3   Block CPU : 0
Spy trying to Evict from 0
Hence it doesn't evict!

Checking the next block with LRU 14

Same Core!
It's own block 14 is being evicted 

Different Cores!
Evicting CPU : 0   Block CPU : 2
Evicting from L2C with CPU 0

Evicting from L2C with CPU 0

Evicting from LLC with CPU 0

It's own block 15 is being evicted 

Different Cores!
Evicting CPU : 1   Block CPU : 3
Spy trying to Evict from 0
Hence it doesn't evict!

Checking the next block with LRU 14

Different Cores!
Evicting CPU : 1   Block CPU : 2
Spy trying to Evict from 0
Hence it doesn't evict!

Checking the next block with LRU 13

Different Cores!
Evicting CPU : 1   Block CPU : 0
Spy trying to Evict from 0
Hence it doesn't evict!

Checking the next block with LRU 12

Different Cores!
Evicting CPU : 1   Block CPU : 3
Spy trying to Evict from 0
Hence it doesn't evict!

Checking the next block with LRU 11

Different Cores!
Evicting CPU : 1   Block CPU : 0
Spy trying to Evict from 0
Hence it doesn't evict!

Checking the next block with LRU 10

Randomly Evicting  11

Different Cores!
Evicting CPU : 0   Block CPU : 2
Evicting from L2C with CPU 0

Evicting from L2C with CPU 0

Evicting from LLC with CPU 0

It's own block 15 is being evicted 

Same Core!
It's own block 15 is being evicted 

Different Cores!
Evicting CPU : 3   Block CPU : 2
Spy trying to Evict from 0
Hence it doesn't evict!

Checking the next block with LRU 14

Same Core!
It's own block 14 is being evicted 

Same Core!
It's own block 15 is being evicted 

Different Cores!
Evicting CPU : 3   Block CPU : 2
Spy trying to Evict from 0
Hence it doesn't evict!

Checking the next block with LRU 14

Same Core!
It's own block 14 is being evicted 

Same Core!
It's own block 15 is being evicted 

Different Cores!
Evicting CPU : 2   Block CPU : 0
Spy trying to Evict from 0
Hence it doesn't evict!

Checking the next block with LRU 14

Different Cores!
Evicting CPU : 2   Block CPU : 1
Spy trying to Evict from 0
Hence it doesn't evict!

Checking the next block with LRU 13

Different Cores!
Evicting CPU : 2   Block CPU : 0
Spy trying to Evict from 0
Hence it doesn't evict!

Checking the next block with LRU 12

Different Cores!
Evicting CPU : 2   Block CPU : 3
Spy trying to Evict from 0
Hence it doesn't evict!

Checking the next block with LRU 11

Different Cores!
Evicting CPU : 2   Block CPU : 0
Spy trying to Evict from 0
Hence it doesn't evict!

Checking the next block with LRU 10

Randomly Evicting  11

Different Cores!
Evicting CPU : 1   Block CPU : 0
Spy trying to Evict from 0
Hence it doesn't evict!

Checking the next block with LRU 14

Different Cores!
Evicting CPU : 1   Block CPU : 0
Spy trying to Evict from 0
Hence it doesn't evict!

Checking the next block with LRU 13

Different Cores!
Evicting CPU : 1   Block CPU : 2
Spy trying to Evict from 0
Hence it doesn't evict!

Checking the next block with LRU 12

Same Core!
It's own block 12 is being evicted 

Same Core!
It's own block 15 is being evicted 

Different Cores!
Evicting CPU : 3   Block CPU : 2
Spy trying to Evict from 0
Hence it doesn't evict!

Checking the next block with LRU 14

Different Cores!
Evicting CPU : 3   Block CPU : 2
Spy trying to Evict from 0
Hence it doesn't evict!

Checking the next block with LRU 13

Different Cores!
Evicting CPU : 3   Block CPU : 1
Spy trying to Evict from 0
Hence it doesn't evict!

Checking the next block with LRU 12

Different Cores!
Evicting CPU : 3   Block CPU : 1
Spy trying to Evict from 0
Hence it doesn't evict!

Checking the next block with LRU 11

Different Cores!
Evicting CPU : 3   Block CPU : 1
Spy trying to Evict from 0
Hence it doesn't evict!

Checking the next block with LRU 10

Randomly Evicting  11

Same Core!
It's own block 15 is being evicted 

Different Cores!
Evicting CPU : 3   Block CPU : 0
Spy trying to Evict from 0
Hence it doesn't evict!

Checking the next block with LRU 14

Same Core!
It's own block 14 is being evicted 

Different Cores!
Evicting CPU : 1   Block CPU : 0
Spy trying to Evict from 0
Hence it doesn't evict!

Checking the next block with LRU 14

Same Core!
It's own block 14 is being evicted 

Same Core!
It's own block 15 is being evicted 

Different Cores!
Evicting CPU : 0   Block CPU : 1
Evicting from L2C with CPU 0

Evicting from L2C with CPU 0

Evicting from LLC with CPU 0

It's own block 15 is being evicted 

Same Core!
It's own block 15 is being evicted 

Different Cores!
Evicting CPU : 0   Block CPU : 3
Evicting from L2C with CPU 0

Evicting from L2C with CPU 0

Evicting from LLC with CPU 0

It's own block 15 is being evicted 

Different Cores!
Evicting CPU : 2   Block CPU : 0
Spy trying to Evict from 0
Hence it doesn't evict!

Checking the next block with LRU 14

Same Core!
It's own block 14 is being evicted 

Different Cores!
Evicting CPU : 3   Block CPU : 0
Spy trying to Evict from 0
Hence it doesn't evict!

Checking the next block with LRU 14

Different Cores!
Evicting CPU : 3   Block CPU : 2
Spy trying to Evict from 0
Hence it doesn't evict!

Checking the next block with LRU 13

Different Cores!
Evicting CPU : 3   Block CPU : 2
Spy trying to Evict from 0
Hence it doesn't evict!

Checking the next block with LRU 12

Different Cores!
Evicting CPU : 3   Block CPU : 0
Spy trying to Evict from 0
Hence it doesn't evict!

Checking the next block with LRU 11

Different Cores!
Evicting CPU : 3   Block CPU : 0
Spy trying to Evict from 0
Hence it doesn't evict!

Checking the next block with LRU 10

Randomly Evicting  11

Different Cores!
Evicting CPU : 1   Block CPU : 0
Spy trying to Evict from 0
Hence it doesn't evict!

Checking the next block with LRU 14

Different Cores!
Evicting CPU : 1   Block CPU : 3
Spy trying to Evict from 0
Hence it doesn't evict!

Checking the next block with LRU 13

Different Cores!
Evicting CPU : 1   Block CPU : 0
Spy trying to Evict from 0
Hence it doesn't evict!

Checking the next block with LRU 12

Different Cores!
Evicting CPU : 1   Block CPU : 0
Spy trying to Evict from 0
Hence it doesn't evict!

Checking the next block with LRU 11

Different Cores!
Evicting CPU : 1   Block CPU : 0
Spy trying to Evict from 0
Hence it doesn't evict!

Checking the next block with LRU 10

Randomly Evicting  11

Different Cores!
Evicting CPU : 3   Block CPU : 0
Spy trying to Evict from 0
Hence it doesn't evict!

Checking the next block with LRU 14

Same Core!
It's own block 14 is being evicted 

Different Cores!
Evicting CPU : 2   Block CPU : 0
Spy trying to Evict from 0
Hence it doesn't evict!

Checking the next block with LRU 14

Different Cores!
Evicting CPU : 2   Block CPU : 1
Spy trying to Evict from 0
Hence it doesn't evict!

Checking the next block with LRU 13

Same Core!
It's own block 13 is being evicted 

Same Core!
It's own block 15 is being evicted 

Different Cores!
Evicting CPU : 2   Block CPU : 0
Spy trying to Evict from 0
Hence it doesn't evict!

Checking the next block with LRU 14

Different Cores!
[...]
Evicting CPU : 3   Block CPU : 0
Spy trying to Evict from 0
Hence it doesn't evict!

Checking the next block with LRU 11

Same Core!
It's own block 11 is being evicted 

Randomly Evicting  11

Different Cores!
Evicting CPU : 3   Block CPU : 2
Spy trying to Evict from 0
Hence it doesn't evict!

Checking the next block with LRU 14

Different Cores!
Evicting CPU : 3   Block CPU : 1
Spy trying to Evict from 0
Hence it doesn't evict!

Checking the next block with LRU 13

Same Core!
It's own block 13 is being evicted 

Different Cores!
Evicting CPU : 1   Block CPU : 2
Spy trying to Evict from 0
Hence it doesn't evict!

Checking the next block with LRU 14

Different Cores!
Evicting CPU : 1   Block CPU : 0
Spy trying to Evict from 0
Hence it doesn't evict!

Checking the next block with LRU 13

Different Cores!
Evicting CPU : 1   Block CPU : 2
Spy trying to Evict from 0
Hence it doesn't evict!

Checking the next block with LRU 12

Different Cores!
Evicting CPU : 1   Block CPU : 0
Spy trying to Evict from 0
Hence it doesn't evict!

Checking the next block with LRU 11

Different Cores!
Evicting CPU : 1   Block CPU : 2
Spy trying to Evict from 0
Hence it doesn't evict!

Checking the next block with LRU 10

Randomly Evicting  11

Different Cores!
Evicting CPU : 3   Block CPU : 2
Spy trying to Evict from 0
Hence it doesn't evict!

Checking the next block with LRU 14

Different Cores!
Evicting CPU : 3   Block CPU : 0
Spy trying to Evict from 0
Hence it doesn't evict!

Checking the next block with LRU 13

Different Cores!
Evicting CPU : 3   Block CPU : 1
Spy trying to Evict from 0
Hence it doesn't evict!

Checking the next block with LRU 12

Different Cores!
Evicting CPU : 3   Block CPU : 0
Spy trying to Evict from 0
Hence it doesn't evict!

Checking the next block with LRU 11

Same Core!
It's own block 11 is being evicted 

Randomly Evicting  11

Different Cores!
Evicting CPU : 1   Block CPU : 0
Spy trying to Evict from 0
Hence it doesn't evict!

Checking the next block with LRU 14

Different Cores!
Evicting CPU : 1   Block CPU : 2
Spy trying to Evict from 0
Hence it doesn't evict!

Checking the next block with LRU 13

Different Cores!
Evicting CPU : 1   Block CPU : 0
Spy trying to Evict from 0
Hence it doesn't evict!

Checking the next block with LRU 12

Different Cores!
Evicting CPU : 1   Block CPU : 0
Spy trying to Evict from 0
Hence it doesn't evict!

Checking the next block with LRU 11

Different Cores!
Evicting CPU : 1   Block CPU : 0
Spy trying to Evict from 0
Hence it doesn't evict!

Checking the next block with LRU 10

Randomly Evicting  11

Different Cores!
Evicting CPU : 1   Block CPU : 2
Spy trying to Evict from 0
Hence it doesn't evict!

Checking the next block with LRU 14

Different Cores!
Evicting CPU : 1   Block CPU : 2
Spy trying to Evict from 0
Hence it doesn't evict!

Checking the next block with LRU 13

Different Cores!
Evicting CPU : 1   Block CPU : 2
Spy trying to Evict from 0
Hence it doesn't evict!

Checking the next block with LRU 12

Same Core!
It's own block 12 is being evicted 

Different Cores!
Evicting CPU : 3   Block CPU : 1
Spy trying to Evict from 0
Hence it doesn't evict!

Checking the next block with LRU 14

Different Cores!
Evicting CPU : 3   Block CPU : 1
Spy trying to Evict from 0
Hence it doesn't evict!

Checking the next block with LRU 13

Different Cores!
Evicting CPU : 3   Block CPU : 1
Spy trying to Evict from 0
Hence it doesn't evict!

Checking the next block with LRU 12

Same Core!
It's own block 12 is being evicted 

Different Cores!
Evicting CPU : 1   Block CPU : 3
Spy trying to Evict from 0
Hence it doesn't evict!

Checking the next block with LRU 14

Different Cores!
Evicting CPU : 1   Block CPU : 0
Spy trying to Evict from 0
Hence it doesn't evict!

Checking the next block with LRU 13

Different Cores!
Evicting CPU : 1   Block CPU : 2
Spy trying to Evict from 0
Hence it doesn't evict!

Checking the next block with LRU 12

Different Cores!
Evicting CPU : 1   Block CPU : 2
Spy trying to Evict from 0
Hence it doesn't evict!

Checking the next block with LRU 11

Different Cores!
Evicting CPU : 1   Block CPU : 3
Spy trying to Evict from 0
Hence it doesn't evict!

Checking the next block with LRU 10

Randomly Evicting  11

Different Cores!
Evicting CPU : 2   Block CPU : 0
Spy trying to Evict from 0
Hence it doesn't evict!

Checking the next block with LRU 14

Different Cores!
Evicting CPU : 2   Block CPU : 3
Spy trying to Evict from 0
Hence it doesn't evict!

Checking the next block with LRU 13

Same Core!
It's own block 13 is being evicted 

Different Cores!
Evicting CPU : 2   Block CPU : 0
Spy trying to Evict from 0
Hence it doesn't evict!

Checking the next block with LRU 14

Different Cores!
Evicting CPU : 2   Block CPU : 0
Spy trying to Evict from 0
Hence it doesn't evict!

Checking the next block with LRU 13

Same Core!
It's own block 13 is being evicted 

Different Cores!
Evicting CPU : 2   Block CPU : 0
Spy trying to Evict from 0
Hence it doesn't evict!

Checking the next block with LRU 14

Same Core!
It's own block 14 is being evicted 

Same Core!
It's own block 15 is being evicted 

Finished CPU 3 instructions: 8000003 cycles: 9925095 cumulative IPC: 0.806038 (Simulation time: 0 hr 1 min 23 sec) 
Finished CPU 0 instructions: 8000002 cycles: 9925567 cumulative IPC: 0.806 (Simulation time: 0 hr 1 min 23 sec) 
Finished CPU 2 instructions: 8000003 cycles: 9926160 cumulative IPC: 0.805951 (Simulation time: 0 hr 1 min 23 sec) 
Finished CPU 1 instructions: 8000001 cycles: 9926335 cumulative IPC: 0.805937 (Simulation time: 0 hr 1 min 23 sec) 

CPU 0 Branch Prediction Accuracy: 91.0454% MPKI: 14.998

CPU 1 Branch Prediction Accuracy: 91.0456% MPKI: 14.9978

CPU 2 Branch Prediction Accuracy: 91.045% MPKI: 14.9992

CPU 3 Branch Prediction Accuracy: 91.0442% MPKI: 15.0008

ChampSim completed all CPUs

Total Simulation Statistics (not including warmup)

CPU 0 cumulative IPC: 0.806033 instructions: 8000954 cycles: 9926335
L1D TOTAL     ACCESS:    1886763  HIT:    1806329  MISS:      80434
L1D LOAD      ACCESS:    1401452  HIT:    1341586  MISS:      59866
L1D RFO       ACCESS:     485311  HIT:     464743  MISS:      20568
L1D PREFETCH  ACCESS:          0  HIT:          0  MISS:          0
L1D WRITEBACK ACCESS:          0  HIT:          0  MISS:          0
L1I TOTAL     ACCESS:    1637606  HIT:    1637605  MISS:          1
L1I LOAD      ACCESS:    1637606  HIT:    1637605  MISS:          1
L1I RFO       ACCESS:          0  HIT:          0  MISS:          0
L1I PREFETCH  ACCESS:          0  HIT:          0  MISS:          0
L1I WRITEBACK ACCESS:          0  HIT:          0  MISS:          0
L2C TOTAL     ACCESS:     104766  HIT:      56067  MISS:      48699
L2C LOAD      ACCESS:      59867  HIT:      27568  MISS:      32299
L2C RFO       ACCESS:      20567  HIT:       4174  MISS:      16393
L2C PREFETCH  ACCESS:          0  HIT:          0  MISS:          0
L2C WRITEBACK ACCESS:      24332  HIT:      24325  MISS:          7
LLC TOTAL     ACCESS:      69068  HIT:      49918  MISS:      19150
LLC LOAD      ACCESS:      32299  HIT:      20584  MISS:      11715
LLC RFO       ACCESS:      16393  HIT:       8958  MISS:       7435
LLC PREFETCH  ACCESS:          0  HIT:          0  MISS:          0
LLC WRITEBACK ACCESS:      20376  HIT:      20376  MISS:          0

CPU 1 cumulative IPC: 0.805937 instructions: 8000001 cycles: 9926335
L1D TOTAL     ACCESS:    1885778  HIT:    1805340  MISS:      80438
L1D LOAD      ACCESS:    1401316  HIT:    1341448  MISS:      59868
L1D RFO       ACCESS:     484462  HIT:     463892  MISS:      20570
L1D PREFETCH  ACCESS:          0  HIT:          0  MISS:          0
L1D WRITEBACK ACCESS:          0  HIT:          0  MISS:          0
L1I TOTAL     ACCESS:    1637165  HIT:    1637164  MISS:          1
L1I LOAD      ACCESS:    1637165  HIT:    1637164  MISS:          1
L1I RFO       ACCESS:          0  HIT:          0  MISS:          0
L1I PREFETCH  ACCESS:          0  HIT:          0  MISS:          0
L1I WRITEBACK ACCESS:          0  HIT:          0  MISS:          0
L2C TOTAL     ACCESS:     104771  HIT:      57470  MISS:      47301
L2C LOAD      ACCESS:      59869  HIT:      29356  MISS:      30513
L2C RFO       ACCESS:      20568  HIT:       3788  MISS:      16780
L2C PREFETCH  ACCESS:          0  HIT:          0  MISS:          0
L2C WRITEBACK ACCESS:      24334  HIT:      24326  MISS:          8
LLC TOTAL     ACCESS:      67818  HIT:      48602  MISS:      19216
LLC LOAD      ACCESS:      30513  HIT:      18756  MISS:      11757
LLC RFO       ACCESS:      16780  HIT:       9321  MISS:       7459
LLC PREFETCH  ACCESS:          0  HIT:          0  MISS:          0
LLC WRITEBACK ACCESS:      20525  HIT:      20525  MISS:          0

CPU 2 cumulative IPC: 0.805977 instructions: 8000400 cycles: 9926335
L1D TOTAL     ACCESS:    1886179  HIT:    1805738  MISS:      80441
L1D LOAD      ACCESS:    1401505  HIT:    1341637  MISS:      59868
L1D RFO       ACCESS:     484674  HIT:     464101  MISS:      20573
L1D PREFETCH  ACCESS:          0  HIT:          0  MISS:          0
L1D WRITEBACK ACCESS:          0  HIT:          0  MISS:          0
L1I TOTAL     ACCESS:    1637114  HIT:    1637113  MISS:          1
L1I LOAD      ACCESS:    1637114  HIT:    1637113  MISS:          1
L1I RFO       ACCESS:          0  HIT:          0  MISS:          0
L1I PREFETCH  ACCESS:          0  HIT:          0  MISS:          0
L1I WRITEBACK ACCESS:          0  HIT:          0  MISS:          0
L2C TOTAL     ACCESS:     104777  HIT:      57618  MISS:      47159
L2C LOAD      ACCESS:      59869  HIT:      29412  MISS:      30457
L2C RFO       ACCESS:      20572  HIT:       3889  MISS:      16683
L2C PREFETCH  ACCESS:          0  HIT:          0  MISS:          0
L2C WRITEBACK ACCESS:      24336  HIT:      24317  MISS:         19
LLC TOTAL     ACCESS:      67636  HIT:      48374  MISS:      19262
LLC LOAD      ACCESS:      30457  HIT:      18687  MISS:      11770
LLC RFO       ACCESS:      16682  HIT:       9190  MISS:       7492
LLC PREFETCH  ACCESS:          0  HIT:          0  MISS:          0
LLC WRITEBACK ACCESS:      20497  HIT:      20497  MISS:          0

CPU 3 cumulative IPC: 0.806074 instructions: 8001357 cycles: 9926335
L1D TOTAL     ACCESS:    1886125  HIT:    1805684  MISS:      80441
L1D LOAD      ACCESS:    1401634  HIT:    1341765  MISS:      59869
L1D RFO       ACCESS:     484491  HIT:     463919  MISS:      20572
L1D PREFETCH  ACCESS:          0  HIT:          0  MISS:          0
L1D WRITEBACK ACCESS:          0  HIT:          0  MISS:          0
L1I TOTAL     ACCESS:    1637596  HIT:    1637595  MISS:          1
L1I LOAD      ACCESS:    1637596  HIT:    1637595  MISS:          1
L1I RFO       ACCESS:          0  HIT:          0  MISS:          0
L1I PREFETCH  ACCESS:          0  HIT:          0  MISS:          0
L1I WRITEBACK ACCESS:          0  HIT:          0  MISS:          0
L2C TOTAL     ACCESS:     104776  HIT:      57269  MISS:      47507
L2C LOAD      ACCESS:      59870  HIT:      29133  MISS:      30737
L2C RFO       ACCESS:      20570  HIT:       3820  MISS:      16750
L2C PREFETCH  ACCESS:          0  HIT:          0  MISS:          0
L2C WRITEBACK ACCESS:      24336  HIT:      24316  MISS:         20
LLC TOTAL     ACCESS:      68034  HIT:      48812  MISS:      19222
LLC LOAD      ACCESS:      30737  HIT:      18997  MISS:      11740
LLC RFO       ACCESS:      16747  HIT:       9265  MISS:       7482
LLC PREFETCH  ACCESS:          0  HIT:          0  MISS:          0
LLC WRITEBACK ACCESS:      20550  HIT:      20550  MISS:          0

Region of Interest Statistics

CPU 0 cumulative IPC: 0.806 instructions: 8000002 cycles: 9925567
L1D TOTAL     ACCESS:    1886580  HIT:    1806146  MISS:      80434
L1D LOAD      ACCESS:    1401340  HIT:    1341474  MISS:      59866
L1D RFO       ACCESS:     485240  HIT:     464672  MISS:      20568
L1D PREFETCH  ACCESS:          0  HIT:          0  MISS:          0
L1D WRITEBACK ACCESS:          0  HIT:          0  MISS:          0
L1D PREFETCH  REQUESTED:          0  ISSUED:          0  USEFUL:          0  USELESS:          0
L1D BACK HITS: 0
L1D TOTAL REPL: 0
L1I TOTAL     ACCESS:    1637441  HIT:    1637440  MISS:          1
L1I LOAD      ACCESS:    1637441  HIT:    1637440  MISS:          1
L1I RFO       ACCESS:          0  HIT:          0  MISS:          0
L1I PREFETCH  ACCESS:          0  HIT:          0  MISS:          0
L1I WRITEBACK ACCESS:          0  HIT:          0  MISS:          0
L1I PREFETCH  REQUESTED:          0  ISSUED:          0  USEFUL:          0  USELESS:          0
L1I BACK HITS: 0
L1I TOTAL REPL: 0
L2C TOTAL     ACCESS:     104766  HIT:      56067  MISS:      48699
L2C LOAD      ACCESS:      59867  HIT:      27568  MISS:      32299
L2C RFO       ACCESS:      20567  HIT:       4174  MISS:      16393
L2C PREFETCH  ACCESS:          0  HIT:          0  MISS:          0
L2C WRITEBACK ACCESS:      24332  HIT:      24325  MISS:          7
L2C PREFETCH  REQUESTED:          0  ISSUED:          0  USEFUL:          0  USELESS:          0
L2C BACK HITS: 0
L2C TOTAL REPL: 0
LLC TOTAL     ACCESS:      69068  HIT:      49918  MISS:      19150
LLC LOAD      ACCESS:      32299  HIT:      20584  MISS:      11715
LLC RFO       ACCESS:      16393  HIT:       8958  MISS:       7435
LLC PREFETCH  ACCESS:          0  HIT:          0  MISS:          0
LLC WRITEBACK ACCESS:      20376  HIT:      20376  MISS:          0
LLC PREFETCH  REQUESTED:          0  ISSUED:          0  USEFUL:          0  USELESS:          0
LLC BACK HITS: 0
LLC TOTAL REPL: 0
Major fault: 0 Minor fault: 741

CPU 1 cumulative IPC: 0.805937 instructions: 8000001 cycles: 9926335
L1D TOTAL     ACCESS:    1885778  HIT:    1805340  MISS:      80438
L1D LOAD      ACCESS:    1401316  HIT:    1341448  MISS:      59868
L1D RFO       ACCESS:     484462  HIT:     463892  MISS:      20570
L1D PREFETCH  ACCESS:          0  HIT:          0  MISS:          0
L1D WRITEBACK ACCESS:          0  HIT:          0  MISS:          0
L1D PREFETCH  REQUESTED:          0  ISSUED:          0  USEFUL:          0  USELESS:          0
L1D BACK HITS: 0
L1D TOTAL REPL: 0
L1I TOTAL     ACCESS:    1637165  HIT:    1637164  MISS:          1
L1I LOAD      ACCESS:    1637165  HIT:    1637164  MISS:          1
L1I RFO       ACCESS:          0  HIT:          0  MISS:          0
L1I PREFETCH  ACCESS:          0  HIT:          0  MISS:          0
L1I WRITEBACK ACCESS:          0  HIT:          0  MISS:          0
L1I PREFETCH  REQUESTED:          0  ISSUED:          0  USEFUL:          0  USELESS:          0
L1I BACK HITS: 0
L1I TOTAL REPL: 0
L2C TOTAL     ACCESS:     104771  HIT:      57470  MISS:      47301
L2C LOAD      ACCESS:      59869  HIT:      29356  MISS:      30513
L2C RFO       ACCESS:      20568  HIT:       3788  MISS:      16780
L2C PREFETCH  ACCESS:          0  HIT:          0  MISS:          0
L2C WRITEBACK ACCESS:      24334  HIT:      24326  MISS:          8
L2C PREFETCH  REQUESTED:          0  ISSUED:          0  USEFUL:          0  USELESS:          0
L2C BACK HITS: 0
L2C TOTAL REPL: 0
LLC TOTAL     ACCESS:      67818  HIT:      48602  MISS:      19216
LLC LOAD      ACCESS:      30513  HIT:      18756  MISS:      11757
LLC RFO       ACCESS:      16780  HIT:       9321  MISS:       7459
LLC PREFETCH  ACCESS:          0  HIT:          0  MISS:          0
LLC WRITEBACK ACCESS:      20525  HIT:      20525  MISS:          0
LLC PREFETCH  REQUESTED:          0  ISSUED:          0  USEFUL:          0  USELESS:          0
LLC BACK HITS: 0
LLC TOTAL REPL: 0
Major fault: 0 Minor fault: 741

CPU 2 cumulative IPC: 0.805951 instructions: 8000003 cycles: 9926160
L1D TOTAL     ACCESS:    1886110  HIT:    1805669  MISS:      80441
L1D LOAD      ACCESS:    1401463  HIT:    1341595  MISS:      59868
L1D RFO       ACCESS:     484647  HIT:     464074  MISS:      20573
L1D PREFETCH  ACCESS:          0  HIT:          0  MISS:          0
L1D WRITEBACK ACCESS:          0  HIT:          0  MISS:          0
L1D PREFETCH  REQUESTED:          0  ISSUED:          0  USEFUL:          0  USELESS:          0
L1D BACK HITS: 0
L1D TOTAL REPL: 0
L1I TOTAL     ACCESS:    1637041  HIT:    1637040  MISS:          1
L1I LOAD      ACCESS:    1637041  HIT:    1637040  MISS:          1
L1I RFO       ACCESS:          0  HIT:          0  MISS:          0
L1I PREFETCH  ACCESS:          0  HIT:          0  MISS:          0
L1I WRITEBACK ACCESS:          0  HIT:          0  MISS:          0
L1I PREFETCH  REQUESTED:          0  ISSUED:          0  USEFUL:          0  USELESS:          0
L1I BACK HITS: 0
L1I TOTAL REPL: 0
L2C TOTAL     ACCESS:     104777  HIT:      57618  MISS:      47159
L2C LOAD      ACCESS:      59869  HIT:      29412  MISS:      30457
L2C RFO       ACCESS:      20572  HIT:       3889  MISS:      16683
L2C PREFETCH  ACCESS:          0  HIT:          0  MISS:          0
L2C WRITEBACK ACCESS:      24336  HIT:      24317  MISS:         19
L2C PREFETCH  REQUESTED:          0  ISSUED:          0  USEFUL:          0  USELESS:          0
L2C BACK HITS: 0
L2C TOTAL REPL: 0
LLC TOTAL     ACCESS:      67636  HIT:      48374  MISS:      19262
LLC LOAD      ACCESS:      30457  HIT:      18687  MISS:      11770
LLC RFO       ACCESS:      16682  HIT:       9190  MISS:       7492
LLC PREFETCH  ACCESS:          0  HIT:          0  MISS:          0
LLC WRITEBACK ACCESS:      20497  HIT:      20497  MISS:          0
LLC PREFETCH  REQUESTED:          0  ISSUED:          0  USEFUL:          0  USELESS:          0
LLC BACK HITS: 0
LLC TOTAL REPL: 0
Major fault: 0 Minor fault: 741

CPU 3 cumulative IPC: 0.806038 instructions: 8000003 cycles: 9925095
L1D TOTAL     ACCESS:    1885845  HIT:    1805404  MISS:      80441
L1D LOAD      ACCESS:    1401453  HIT:    1341584  MISS:      59869
L1D RFO       ACCESS:     484392  HIT:     463820  MISS:      20572
L1D PREFETCH  ACCESS:          0  HIT:          0  MISS:          0
L1D WRITEBACK ACCESS:          0  HIT:          0  MISS:          0
L1D PREFETCH  REQUESTED:          0  ISSUED:          0  USEFUL:          0  USELESS:          0
L1D BACK HITS: 0
L1D TOTAL REPL: 0
L1I TOTAL     ACCESS:    1637309  HIT:    1637308  MISS:          1
L1I LOAD      ACCESS:    1637309  HIT:    1637308  MISS:          1
L1I RFO       ACCESS:          0  HIT:          0  MISS:          0
L1I PREFETCH  ACCESS:          0  HIT:          0  MISS:          0
L1I WRITEBACK ACCESS:          0  HIT:          0  MISS:          0
L1I PREFETCH  REQUESTED:          0  ISSUED:          0  USEFUL:          0  USELESS:          0
L1I BACK HITS: 0
L1I TOTAL REPL: 0
L2C TOTAL     ACCESS:     104776  HIT:      57269  MISS:      47507
L2C LOAD      ACCESS:      59870  HIT:      29133  MISS:      30737
L2C RFO       ACCESS:      20570  HIT:       3820  MISS:      16750
L2C PREFETCH  ACCESS:          0  HIT:          0  MISS:          0
L2C WRITEBACK ACCESS:      24336  HIT:      24316  MISS:         20
L2C PREFETCH  REQUESTED:          0  ISSUED:          0  USEFUL:          0  USELESS:          0
L2C BACK HITS: 0
L2C TOTAL REPL: 0
LLC TOTAL     ACCESS:      68033  HIT:      48811  MISS:      19222
LLC LOAD      ACCESS:      30737  HIT:      18997  MISS:      11740
LLC RFO       ACCESS:      16747  HIT:       9265  MISS:       7482
LLC PREFETCH  ACCESS:          0  HIT:          0  MISS:          0
LLC WRITEBACK ACCESS:      20549  HIT:      20549  MISS:          0
LLC PREFETCH  REQUESTED:          0  ISSUED:          0  USEFUL:          0  USELESS:          0
LLC BACK HITS: 0
LLC TOTAL REPL: 0
Major fault: 0 Minor fault: 741

DRAM Statistics
 CHANNEL 0
 RQ ROW_BUFFER_HIT:      17582  ROW_BUFFER_MISS:      19935
 DBUS_CONGESTED:      33143
 WQ ROW_BUFFER_HIT:         48  ROW_BUFFER_MISS:        544  FULL:          0

 CHANNEL 1
 RQ ROW_BUFFER_HIT:      19207  ROW_BUFFER_MISS:      20089
 DBUS_CONGESTED:      33143
 WQ ROW_BUFFER_HIT:         74  ROW_BUFFER_MISS:        931  FULL:          0

 AVG_CONGESTED_CYCLE: 12
