
*** ChampSim Multicore Out-of-Order Simulator ***

Warmup Instructions: 1000000
Simulation Instructions: 8000000
Number of CPUs: 2
LLC sets: 4096
LLC ways: 16
Off-chip DRAM Size: 8192 MB Channels: 2 Width: 64-bit Data Rate: 1600 MT/s

CPU 0 runs /home/ubuntu/workspace/ChampSim-inclusive/traces/bzip2_183B.trace.gz
CPU 1 runs /home/ubuntu/workspace/ChampSim-inclusive/traces/bzip2_183B.trace.gz
CPU 0 Bimodal branch predictor
CPU 1 Bimodal branch predictor

Warmup complete CPU 0 instructions: 1000222 cycles: 554763 (Simulation time: 0 hr 0 min 3 sec) 
Warmup complete CPU 1 instructions: 1000002 cycles: 554763 (Simulation time: 0 hr 0 min 3 sec) 

Different Cores!
Evicting CPU : 1   Block CPU : 0
Spy trying to Evict from 0
Hence it doesn't evict!

Checking the next block with LRU 14

Different Cores!
Evicting CPU : 1   Block CPU : 0
Spy trying to Evict from 0
Hence it doesn't evict!

Checking the next block with LRU 13

Same Core!
It's own block 13 is being evicted 

Different Cores!
Evicting CPU : 0   Block CPU : 1
Evicting from L2C with CPU 0

Evicting from L2C with CPU 0

Evicting from LLC with CPU 0

It's own block 15 is being evicted 

Same Core!
It's own block 15 is being evicted 

Same Core!
It's own block 15 is being evicted 

Same Core!
It's own block 15 is being evicted 

Different Cores!
Evicting CPU : 0   Block CPU : 1
Evicting from L2C with CPU 0

Evicting from L2C with CPU 0

Evicting from LLC with CPU 0

It's own block 15 is being evicted 

Same Core!
It's own block 15 is being evicted 

Different Cores!
Evicting CPU : 1   Block CPU : 0
Spy trying to Evict from 0
Hence it doesn't evict!

Checking the next block with LRU 14

Different Cores!
Evicting CPU : 1   Block CPU : 0
Spy trying to Evict from 0
Hence it doesn't evict!

Checking the next block with LRU 13

Same Core!
It's own block 13 is being evicted 

Different Cores!
Evicting CPU : 1   Block CPU : 0
Spy trying to Evict from 0
Hence it doesn't evict!

Checking the next block with LRU 14

Same Core!
It's own block 14 is being evicted 

Different Cores!
Evicting CPU : 1   Block CPU : 0
Spy trying to Evict from 0
Hence it doesn't evict!

Checking the next block with LRU 14

Same Core!
It's own block 14 is being evicted 

Same Core!
It's own block 15 is being evicted 

Same Core!
It's own block 15 is being evicted 

Different Cores!
Evicting CPU : 1   Block CPU : 0
Spy trying to Evict from 0
Hence it doesn't evict!

Checking the next block with LRU 14

Same Core!
It's own block 14 is being evicted 

Same Core!
It's own block 15 is being evicted 

Same Core!
It's own block 15 is being evicted 

Same Core!
It's own block 15 is being evicted 

Different Cores!
Evicting CPU : 1   Block CPU : 0
Spy trying to Evict from 0
Hence it doesn't evict!

Checking the next block with LRU 14

Same Core!
It's own block 14 is being evicted 

Different Cores!
Evicting CPU : 0   Block CPU : 1
Evicting from L2C with CPU 0

Evicting from L2C with CPU 0

Evicting from LLC with CPU 0

It's own block 15 is being evicted 

Same Core!
It's own block 15 is being evicted 

Different Cores!
Evicting CPU : 0   Block CPU : 1
Evicting from L2C with CPU 0

Evicting from L2C with CPU 0

Evicting from LLC with CPU 0

It's own block 15 is being evicted 

Same Core!
It's own block 15 is being evicted 

Different Cores!
Evicting CPU : 1   Block CPU : 0
Spy trying to Evict from 0
Hence it doesn't evict!

Checking the next block with LRU 14

Same Core!
It's own block 14 is being evicted 

Same Core!
It's own block 15 is being evicted 

Different Cores!
Evicting CPU : 0   Block CPU : 1
Evicting from L2C with CPU 0

Evicting from L2C with CPU 0

Evicting from LLC with CPU 0

It's own block 15 is being evicted 

Same Core!
It's own block 15 is being evicted 

Different Cores!
Evicting CPU : 1   Block CPU : 0
Spy trying to Evict from 0
Hence it doesn't evict!

Checking the next block with LRU 14

Same Core!
It's own block 14 is being evicted 

Different Cores!
Evicting CPU : 1   Block CPU : 0
Spy trying to Evict from 0
Hence it doesn't evict!

Checking the next block with LRU 14

Same Core!
It's own block 14 is being evicted 

Same Core!
It's own block 15 is being evicted 

Different Cores!
Evicting CPU : 1   Block CPU : 0
Spy trying to Evict from 0
Hence it doesn't evict!

Checking the next block with LRU 14

Same Core!
It's own block 14 is being evicted 

Same Core!
It's own block 15 is being evicted 

Same Core!
It's own block 15 is being evicted 

Different Cores!
Evicting CPU : 1   Block CPU : 0
Spy trying to Evict from 0
Hence it doesn't evict!

Checking the next block with LRU 14

Different Cores!
Evicting CPU : 1   Block CPU : 0
Spy trying to Evict from 0
Hence it doesn't evict!

Checking the next block with LRU 13

Different Cores!
Evicting CPU : 1   Block CPU : 0
Spy trying to Evict from 0
Hence it doesn't evict!

Checking the next block with LRU 12

Same Core!
It's own block 12 is being evicted 

Different Cores!
Evicting CPU : 0   Block CPU : 1
Evicting from L2C with CPU 0

Evicting from L2C with CPU 0

Evicting from LLC with CPU 0

It's own block 15 is being evicted 

Same Core!
It's own block 15 is being evicted 

Same Core!
It's own block 15 is being evicted 

Same Core!
It's own block 15 is being evicted 

Different Cores!
Evicting CPU : 0   Block CPU : 1
Evicting from L2C with CPU 0

Evicting from L2C with CPU 0

Evicting from LLC with CPU 0

It's own block 15 is being evicted 

Different Cores!
Evicting CPU : 0   Block CPU : 1
Evicting from L2C with CPU 0

Evicting from L2C with CPU 0

Evicting from LLC with CPU 0

It's own block 15 is being evicted 

Different Cores!
Evicting CPU : 1   Block CPU : 0
Spy trying to Evict from 0
Hence it doesn't evict!

Checking the next block with LRU 14

Different Cores!
Evicting CPU : 1   Block CPU : 0
Spy trying to Evict from 0
Hence it doesn't evict!

Checking the next block with LRU 13

Different Cores!
Evicting CPU : 1   Block CPU : 0
Spy trying to Evict from 0
Hence it doesn't evict!

Checking the next block with LRU 12

Same Core!
It's own block 12 is being evicted 

Same Core!
It's own block 15 is being evicted 

Different Cores!
Evicting CPU : 0   Block CPU : 1
Evicting from L2C with CPU 0

Evicting from L2C with CPU 0

Evicting from LLC with CPU 0

It's own block 15 is being evicted 

Same Core!
It's own block 15 is being evicted 

Different Cores!
Evicting CPU : 0   Block CPU : 1
Evicting from L2C with CPU 0

Evicting from L2C with CPU 0

Evicting from LLC with CPU 0

It's own block 15 is being evicted 

Same Core!
It's own block 15 is being evicted 

Same Core!
It's own block 15 is being evicted 

Same Core!
It's own block 15 is being evicted 

Different Cores!
Evicting CPU : 1   Block CPU : 0
Spy trying to Evict from 0
Hence it doesn't evict!

Checking the next block with LRU 14

Same Core!
It's own block 14 is being evicted 

Same Core!
It's own block 15 is being evicted 

Different Cores!
Evicting CPU : 0   Block CPU : 1
Evicting from L2C with CPU 0

Evicting from L2C with CPU 0

Evicting from LLC with CPU 0

It's own block 15 is being evicted 

Same Core!
It's own block 15 is being evicted 

Same Core!
It's own block 15 is being evicted 

Different Cores!
Evicting CPU : 0   Block CPU : 1
Evicting from L2C with CPU 0

Evicting from L2C with CPU 0

Evicting from LLC with CPU 0

It's own block 15 is being evicted 

Same Core!
It's own block 15 is being evicted 

Different Cores!
Evicting CPU : 0   Block CPU : 1
Evicting from L2C with CPU 0

Evicting from L2C with CPU 0

Evicting from LLC with CPU 0

It's own block 15 is being evicted 

Different Cores!
Evicting CPU : 0   Block CPU : 1
Evicting from L2C with CPU 0

Evicting from L2C with CPU 0

Evicting from LLC with CPU 0

It's own block 15 is being evicted 

Different Cores!
Evicting CPU : 0   Block CPU : 1
Evicting from L2C with CPU 0

Evicting from L2C with CPU 0

Evicting from LLC with CPU 0

It's own block 15 is being evicted 

Same Core!
It's own block 15 is being evicted 

Same Core!
It's own block 15 is being evicted 

Same Core!
It's own block 15 is being evicted 

Different Cores!
Evicting CPU : 1   Block CPU : 0
Spy trying to Evict from 0
Hence it doesn't evict!

Checking the next block with LRU 14

Different Cores!
Evicting CPU : 1   Block CPU : 0
Spy trying to Evict from 0
Hence it doesn't evict!

Checking the next block with LRU 13

Same Core!
It's own block 13 is being evicted 

Same Core!
It's own block 15 is being evicted 

Different Cores!
Evicting CPU : 0   Block CPU : 1
Evicting from L2C with CPU 0

Evicting from L2C with CPU 0

Evicting from LLC with CPU 0

It's own block 15 is being evicted 

Same Core!
It's own block 15 is being evicted 

Different Cores!
Evicting CPU : 1   Block CPU : 0
Spy trying to Evict from 0
Hence it doesn't evict!

Checking the next block with LRU 14

Same Core!
It's own block 14 is being evicted 

Same Core!
It's own block 15 is being evicted 

Different Cores!
Evicting CPU : 1   Block CPU : 0
Spy trying to Evict from 0
Hence it doesn't evict!

Checking the next block with LRU 14

Different Cores!
Evicting CPU : 1   Block CPU : 0
Spy trying to Evict from 0
Hence it doesn't evict!

Checking the next block with LRU 13

Same Core!
It's own block 13 is being evicted 

Same Core!
It's own block 15 is being evicted 

Same Core!
It's own block 15 is being evicted 

Same Core!
It's own block 15 is being evicted 

Same Core!
It's own block 15 is being evicted 

Different Cores!
Evicting CPU : 0   Block CPU : 1
Evicting from L2C with CPU 0

Evicting from L2C with CPU 0

Evicting from LLC with CPU 0

It's own block 15 is being evicted 

Different Cores!
Evicting CPU : 0   Block CPU : 1
Evicting from L2C with CPU 0

Evicting from L2C with CPU 0

Evicting from LLC with CPU 0

It's own block 15 is being evicted 

Different Cores!
Evicting CPU : 1   Block CPU : 0
Spy trying to Evict from 0
Hence it doesn't evict!

Checking the next block with LRU 14

Same Core!
It's own block 14 is being evicted 

Same Core!
It's own block 15 is being evicted 

Different Cores!
Evicting CPU : 0   Block CPU : 1
Evicting from L2C with CPU 0

Evicting from L2C with CPU 0

Evicting from LLC with CPU 0

It's own block 15 is being evicted 

Same Core!
It's own block 15 is being evicted 

Same Core!
It's own block 15 is being evicted 

Different Cores!
Evicting CPU : 1   Block CPU : 0
Spy trying to Evict from 0
Hence it doesn't evict!

Checking the next block with LRU 14

Different Cores!
Evicting CPU : 1   Block CPU : 0
Spy trying to Evict from 0
Hence it doesn't evict!

Checking the next block with LRU 13

Different Cores!
Evicting CPU : 1   Block CPU : 0
Spy trying to Evict from 0
Hence it doesn't evict!

Checking the next block with LRU 12

Same Core!
It's own block 12 is being evicted 

Same Core!
It's own block 15 is being evicted 

Different Cores!
Evicting CPU : 0   Block CPU : 1
Evicting from L2C with CPU 0

Evicting from L2C with CPU 0

Evicting from LLC with CPU 0

It's own block 15 is being evicted 

Same Core!
It's own block 15 is being evicted 

Different Cores!
Evicting CPU : 0   Block CPU : 1
Evicting from L2C with CPU 0

Evicting from L2C with CPU 0

Evicting from LLC with CPU 0

It's own block 15 is being evicted 

Same Core!
It's own block 15 is being evicted 

Same Core!
It's own block 15 is being evicted 

Same Core!
It's own block 15 is being evicted 

Same Core!
It's own block 15 is being evicted 

Same Core!
It's own block 15 is being evicted 

Same Core!
It's own block 15 is being evicted 

Same Core!
It's own block 15 is being evicted 

Same Core!
It's own block 15 is being evicted 

Different Cores!
Evicting CPU : 1   Block CPU : 0
Spy trying to Evict from 0
Hence it doesn't evict!

Checking the next block with LRU 14

Same Core!
It's own block 14 is being evicted 

Different Cores!
Evicting CPU : 0   Block CPU : 1
Evicting from L2C with CPU 0

Evicting from L2C with CPU 0

Evicting from LLC with CPU 0

It's own block 15 is being evicted 

Same Core!
It's own block 15 is being evicted 

Different Cores!
Evicting CPU : 1   Block CPU : 0
Spy trying to Evict from 0
Hence it doesn't evict!

Checking the next block with LRU 14

Same Core!
It's own block 14 is being evicted 

Different Cores!
Evicting CPU : 1   Block CPU : 0
Spy trying to Evict from 0
Hence it doesn't evict!

Checking the next block with LRU 14

Different Cores!
Evicting CPU : 1   Block CPU : 0
Spy trying to Evict from 0
Hence it doesn't evict!

Checking the next block with LRU 13

Same Core!
It's own block 13 is being evicted 

Same Core!
It's own block 15 is being evicted 

Same Core!
It's own block 15 is being evicted 

Same Core!
It's own block 15 is being evicted 

Same Core!
It's own block 15 is being evicted 

Same Core!
It's own block 15 is being evicted 

Different Cores!
Evicting CPU : 1   Block CPU : 0
Spy trying to Evict from 0
Hence it doesn't evict!

Checking the next block with LRU 14

Different Cores!
Evicting CPU : 1   Block CPU : 0
Spy trying to Evict from 0
Hence it doesn't evict!

Checking the next block with LRU 13

Same Core!
It's own block 13 is being evicted 

Same Core!
It's own block 15 is being evicted 

Different Cores!
Evicting CPU : 1   Block CPU : 0
Spy trying to Evict from 0
Hence it doesn't evict!

Checking the next block with LRU 14

Same Core!
It's own block 14 is being evicted 

Same Core!
It's own block 15 is being evicted 

Different Cores!
Evicting CPU : 1   Block CPU : 0
Spy trying to Evict from 0
Hence it doesn't evict!

Checking the next block with LRU 14

Different Cores!
Evicting CPU : 1   Block CPU : 0
Spy trying to Evict from 0
Hence it doesn't evict!

Checking the next block with LRU 13

Different Cores!
Evicting CPU : 1   Block CPU : 0
Spy trying to Evict from 0
Hence it doesn't evict!

Checking the next block with LRU 12

Same Core!
It's own block 12 is being evicted 

Different Cores!
Evicting CPU : 0   Block CPU : 1
Evicting from L2C with CPU 0

Evicting from L2C with CPU 0

Evicting from LLC with CPU 0

It's own block 15 is being evicted 

Different Cores!
Evicting CPU : 1   Block CPU : 0
Spy trying to Evict from 0
Hence it doesn't evict!

Checking the next block with LRU 14

Same Core!
It's own block 14 is being evicted 

Different Cores!
Evicting CPU : 1   Block CPU : 0
Spy trying to Evict from 0
Hence it doesn't evict!

Checking the next block with LRU 14

Same Core!
It's own block 14 is being evicted 

Same Core!
It's own block 15 is being evicted 

Same Core!
It's own block 15 is being evicted 

Same Core!
It's own block 15 is being evicted 

Same Core!
It's own block 15 is being evicted 

Different Cores!
Evicting CPU : 1   Block CPU : 0
Spy trying to Evict from 0
Hence it doesn't evict!

Checking the next block with LRU 14

Same Core!
It's own block 14 is being evicted 

Same Core!
It's own block 15 is being evicted 

Different Cores!
Evicting CPU : 0   Block CPU : 1
Evicting from L2C with CPU 0

Evicting from L2C with CPU 0

Evicting from LLC with CPU 0

It's own block 15 is being evicted 

Same Core!
It's own block 15 is being evicted 

Same Core!
It's own block 15 is being evicted 

Same Core!
It's own block 15 is being evicted 

Same Core!
It's own block 15 is being evicted 

Same Core!
It's own block 15 is being evicted 

Same Core!
It's own block 15 is being evicted 

Different Cores!
Evicting CPU : 1   Block CPU : 0
Spy trying to Evict from 0
Hence it doesn't evict!

Checking the next block with LRU 14

Same Core!
It's own block 14 is being evicted 

Different Cores!
Evicting CPU : 0   Block CPU : 1
Evicting from L2C with CPU 0

Evicting from L2C with CPU 0

Evicting from LLC with CPU 0

It's own block 15 is being evicted 

Different Cores!
Evicting CPU : 1   Block CPU : 0
Spy trying to Evict from 0
Hence it doesn't evict!

Checking the next block with LRU 14

Same Core!
It's own block 14 is being evicted 

Same Core!
It's own block 15 is being evicted 

Same Core!
It's own block 15 is being evicted 

Different Cores!
Evicting CPU : 0   Block CPU : 1
Evicting from L2C with CPU 0

Evicting from L2C with CPU 0

Evicting from LLC with CPU 0

It's own block 15 is being evicted 

Same Core!
It's own block 15 is being evicted 

Same Core!
It's own block 15 is being evicted 

Same Core!
It's own block 15 is being evicted 

Different Cores!
Evicting CPU : 0   Block CPU : 1
Evicting from L2C with CPU 0

Evicting from L2C with CPU 0

Evicting from LLC with CPU 0

It's own block 15 is being evicted 

Different Cores!
Evicting CPU : 0   Block CPU : 1
Evicting from L2C with CPU 0

Evicting from L2C with CPU 0

Evicting from LLC with CPU 0

It's own block 15 is being evicted 

Same Core!
It's own block 15 is being evicted 

Same Core!
It's own block 15 is being evicted 

Different Cores!
Evicting CPU : 0   Block CPU : 1
Evicting from L2C with CPU 0

Evicting from L2C with CPU 0

Evicting from LLC with CPU 0

It's own block 15 is being evicted 

Same Core!
It's own block 15 is being evicted 

Same Core!
It's own block 15 is being evicted 

Different Cores!
Evicting CPU : 1   Block CPU : 0
Spy trying to Evict from 0
Hence it doesn't evict!

Checking the next block with LRU 14

Different Cores!
Evicting CPU : 1   Block CPU : 0
Spy trying to Evict from 0
Hence it doesn't evict!

Checking the next block with LRU 13

Same Core!
It's own block 13 is being evicted 

Different Cores!
Evicting CPU : 1   Block CPU : 0
Spy trying to Evict from 0
Hence it doesn't evict!

Checking the next block with LRU 14

Different Cores!
Evicting CPU : 1   Block CPU : 0
Spy trying to Evict from 0
Hence it doesn't evict!

Checking the next block with LRU 13

Different Cores!
Evicting CPU : 1   Block CPU : 0
Spy trying to Evict from 0
Hence it doesn't evict!

Checking the next block with LRU 12

Same Core!
It's own block 12 is being evicted 

Different Cores!
Evicting CPU : 0   Block CPU : 1
Evicting from L2C with CPU 0

Evicting from L2C with CPU 0

Evicting from LLC with CPU 0

It's own block 15 is being evicted 

Same Core!
It's own block 15 is being evicted 

Same Core!
It's own block 15 is being evicted 

Different Cores!
Evicting CPU : 0   Block CPU : 1
Evicting from L2C with CPU 0

Evicting from L2C with CPU 0

Evicting from LLC with CPU 0

It's own block 15 is being evicted 

Same Core!
It's own block 15 is being evicted 

Same Core!
It's own block 15 is being evicted 

Different Cores!
Evicting CPU : 1   Block CPU : 0
Spy trying to Evict from 0
Hence it doesn't evict!

Checking the next block with LRU 14

Different Cores!
Evicting CPU : 1   Block CPU : 0
Spy trying to Evict from 0
Hence it doesn't evict!

Checking the next block with LRU 13

Different Cores!
Evicting CPU : 1   Block CPU : 0
Spy trying to Evict from 0
Hence it doesn't evict!

Checking the next block with LRU 12

Different Cores!
Evicting CPU : 1   Block CPU : 0
Spy trying to Evict from 0
Hence it doesn't evict!

Checking the next block with LRU 11

Different Cores!
Evicting CPU : 1   Block CPU : 0
Spy trying to Evict from 0
Hence it doesn't evict!

Checking the next block with LRU 10

Randomly Evicting  11

Same Core!
It's own block 15 is being evicted 

Different Cores!
Evicting CPU : 1   Block CPU : 0
Spy trying to Evict from 0
Hence it doesn't evict!

Checking the next block with LRU 14

Different Cores!
Evicting CPU : 1   Block CPU : 0
Spy trying to Evict from 0
Hence it doesn't evict!

Checking the next block with LRU 13

Same Core!
It's own block 13 is being evicted 

Different Cores!
Evicting CPU : 1   Block CPU : 0
Spy trying to Evict from 0
Hence it doesn't evict!

Checking the next block with LRU 14

Different Cores!
Evicting CPU : 1   Block CPU : 0
Spy trying to Evict from 0
Hence it doesn't evict!

Checking the next block with LRU 13

Same Core!
It's own block 13 is being evicted 

Different Cores!
Evicting CPU : 1   Block CPU : 0
Spy trying to Evict from 0
Hence it doesn't evict!

Checking the next block with LRU 14

Different Cores!
Evicting CPU : 1   Block CPU : 0
Spy trying to Evict from 0
Hence it doesn't evict!

Checking the next block with LRU 13

Same Core!
It's own block 13 is being evicted 

Same Core!
It's own block 15 is being evicted 

Same Core!
It's own block 15 is being evicted 

Same Core!
It's own block 15 is being evicted 

Different Cores!
Evicting CPU : 1   Block CPU : 0
Spy trying to Evict from 0
Hence it doesn't evict!

Checking the next block with LRU 14

Different Cores!
Evicting CPU : 1   Block CPU : 0
Spy trying to Evict from 0
Hence it doesn't evict!

Checking the next block with LRU 13

Same Core!
It's own block 13 is being evicted 

Same Core!
It's own block 15 is being evicted 

Same Core!
It's own block 15 is being evicted 

Same Core!
It's own block 15 is being evicted 

Same Core!
It's own block 15 is being evicted 

Same Core!
It's own block 15 is being evicted 

Different Cores!
Evicting CPU : 1   Block CPU : 0
Spy trying to Evict from 0
Hence it doesn't evict!

Checking the next block with LRU 14

Different Cores!
Evicting CPU : 1   Block CPU : 0
Spy trying to Evict from 0
Hence it doesn't evict!

Checking the next block with LRU 13

Same Core!
It's own block 13 is being evicted 

Same Core!
It's own block 15 is being evicted 

Same Core!
It's own block 15 is being evicted 

Same Core!
It's own block 15 is being evicted 

Same Core!
It's own block 15 is being evicted 

Same Core!
It's own block 15 is being evicted 

Different Cores!
Evicting CPU : 0   Block CPU : 1
Evicting from L2C with CPU 0

Evicting from L2C with CPU 0

Evicting from LLC with CPU 0

It's own block 15 is being evicted 

Different Cores!
Evicting CPU : 0   Block CPU : 1
Evicting from L2C with CPU 0

Evicting from L2C with CPU 0

Evicting from LLC with CPU 0

It's own block 15 is being evicted 

Same Core!
It's own block 15 is being evicted 

Different Cores!
Evicting CPU : 1   Block CPU : 0
Spy trying to Evict from 0
Hence it doesn't evict!

Checking the next block with LRU 14

Different Cores!
Evicting CPU : 1   Block CPU : 0
Spy trying to Evict from 0
Hence it doesn't evict!

Checking the next block with LRU 13

Different Cores!
Evicting CPU : 1   Block CPU : 0
Spy trying to Evict from 0
Hence it doesn't evict!

Checking the next block with LRU 12

Different Cores!
Evicting CPU : 1   Block CPU : 0
Spy trying to Evict from 0
Hence it doesn't evict!

Checking the next block with LRU 11

Different Cores!
Evicting CPU : 1   Block CPU : 0
Spy trying to Evict from 0
Hence it doesn't evict!

Checking the next block with LRU 10

Randomly Evicting  11

Same Core!
It's own block 15 is being evicted 

Same Core!
It's own block 15 is being evicted 

Different Cores!
Evicting CPU : 1   Block CPU : 0
Spy trying to Evict from 0
Hence it doesn't evict!

Checking the next block with LRU 14

Different Cores!
Evicting CPU : 1   Block CPU : 0
Spy trying to Evict from 0
Hence it doesn't evict!

Checking the next block with LRU 13

Same Core!
It's own block 13 is being evicted 

Same Core!
It's own block 15 is being evicted 

Different Cores!
Evicting CPU : 0   Block CPU : 1
Evicting from L2C with CPU 0

Evicting from L2C with CPU 0

Evicting from LLC with CPU 0

It's own block 15 is being evicted 

Different Cores!
Evicting CPU : 0   Block CPU : 1
Evicting from L2C with CPU 0

Evicting from L2C with CPU 0

Evicting from LLC with CPU 0

It's own block 15 is being evicted 

Different Cores!
Evicting CPU : 0   Block CPU : 1
Evicting from L2C with CPU 0

Evicting from L2C with CPU 0

Evicting from LLC with CPU 0

It's own block 15 is being evicted 

Same Core!
It's own block 15 is being evicted 

Different Cores!
Evicting CPU : 1   Block CPU : 0
Spy trying to Evict from 0
Hence it doesn't evict!

Checking the next block with LRU 14

Same Core!
It's own block 14 is being evicted 

Same Core!
It's own block 15 is being evicted 

Same Core!
It's own block 15 is being evicted 

Same Core!
It's own block 15 is being evicted 

Different Cores!
Evicting CPU : 1   Block CPU : 0
Spy trying to Evict from 0
Hence it doesn't evict!

Checking the next block with LRU 14

Same Core!
It's own block 14 is being evicted 

Same Core!
It's own block 15 is being evicted 

Different Cores!
Evicting CPU : 0   Block CPU : 1
Evicting from L2C with CPU 0

Evicting from L2C with CPU 0

Evicting from LLC with CPU 0

It's own block 15 is being evicted 

Different Cores!
Evicting CPU : 1   Block CPU : 0
Spy trying to Evict from 0
Hence it doesn't evict!

Checking the next block with LRU 14

Different Cores!
Evicting CPU : 1   Block CPU : 0
Spy trying to Evict from 0
Hence it doesn't evict!

Checking the next block with LRU 13

Different Cores!
Evicting CPU : 1   Block CPU : 0
Spy trying to Evict from 0
Hence it doesn't evict!

Checking the next block with LRU 12

Different Cores!
Evicting CPU : 1   Block CPU : 0
Spy trying to Evict from 0
Hence it doesn't evict!

Checking the next block with LRU 11

Same Core!
It's own block 11 is being evicted 

Randomly Evicting  11

Same Core!
It's own block 15 is being evicted 

Different Cores!
Evicting CPU : 0   Block CPU : 1
Evicting from L2C with CPU 0

Evicting from L2C with CPU 0

Evicting from LLC with CPU 0

It's own block 15 is being evicted 

Different Cores!
Evicting CPU : 0   Block CPU : 1
Evicting from L2C with CPU 0

Evicting from L2C with CPU 0

Evicting from LLC with CPU 0

It's own block 15 is being evicted 

Same Core!
It's own block 15 is being evicted 

Different Cores!
Evicting CPU : 1   Block CPU : 0
Spy trying to Evict from 0
Hence it doesn't evict!

Checking the next block with LRU 14

Same Core!
It's own block 14 is being evicted 

Different Cores!
Evicting CPU : 0   Block CPU : 1
Evicting from L2C with CPU 0

Evicting from L2C with CPU 0

Evicting from LLC with CPU 0

It's own block 15 is being evicted 

Different Cores!
Evicting CPU : 0   Block CPU : 1
Evicting from L2C with CPU 0

Evicting from L2C with CPU 0

Evicting from LLC with CPU 0

It's own block 15 is being evicted 

Same Core!
It's own block 15 is being evicted 

Same Core!
It's own block 15 is being evicted 

Same Core!
It's own block 15 is being evicted 

Same Core!
It's own block 15 is being evicted 

Same Core!
It's own block 15 is being evicted 

Different Cores!
Evicting CPU : 0   Block CPU : 1
Evicting from L2C with CPU 0

Evicting from L2C with CPU 0

Evicting from LLC with CPU 0

It's own block 15 is being evicted 

Different Cores!
Evicting CPU : 1   Block CPU : 0
Spy trying to Evict from 0
Hence it doesn't evict!

Checking the next block with LRU 14

Same Core!
It's own block 14 is being evicted 

Different Cores!
Evicting CPU : 0   Block CPU : 1
Evicting from L2C with CPU 0

Evicting from L2C with CPU 0

Evicting from LLC with CPU 0

It's own block 15 is being evicted 

Different Cores!
Evicting CPU : 0   Block CPU : 1
Evicting from L2C with CPU 0

Evicting from L2C with CPU 0

Evicting from LLC with CPU 0

It's own block 15 is being evicted 

Same Core!
It's own block 15 is being evicted 

Same Core!
It's own block 15 is being evicted 

Different Cores!
Evicting CPU : 0   Block CPU : 1
Evicting from L2C with CPU 0

Evicting from L2C with CPU 0

Evicting from LLC with CPU 0

It's own block 15 is being evicted 

Different Cores!
Evicting CPU : 1   Block CPU : 0
Spy trying to Evict from 0
Hence it doesn't evict!

Checking the next block with LRU 14

Different Cores!
Evicting CPU : 1   Block CPU : 0
Spy trying to Evict from 0
Hence it doesn't evict!

Checking the next block with LRU 13

Same Core!
It's own block 13 is being evicted 

Same Core!
It's own block 15 is being evicted 

Same Core!
It's own block 15 is being evicted 

Same Core!
It's own block 15 is being evicted 

Different Cores!
Evicting CPU : 1   Block CPU : 0
Spy trying to Evict from 0
Hence it doesn't evict!

Checking the next block with LRU 14

Different Cores!
Evicting CPU : 1   Block CPU : 0
Spy trying to Evict from 0
Hence it doesn't evict!

Checking the next block with LRU 13

Different Cores!
Evicting CPU : 1   Block CPU : 0
Spy trying to Evict from 0
Hence it doesn't evict!

Checking the next block with LRU 12

Different Cores!
Evicting CPU : 1   Block CPU : 0
Spy trying to Evict from 0
Hence it doesn't evict!

Checking the next block with LRU 11

Same Core!
It's own block 11 is being evicted 

Randomly Evicting  11

Different Cores!
Evicting CPU : 1   Block CPU : 0
Spy trying to Evict from 0
Hence it doesn't evict!

Checking the next block with LRU 14

Different Cores!
Evicting CPU : 1   Block CPU : 0
Spy trying to Evict from 0
Hence it doesn't evict!

Checking the next block with LRU 13

Same Core!
It's own block 13 is being evicted 

Different Cores!
Evicting CPU : 0   Block CPU : 1
Evicting from L2C with CPU 0

Evicting from L2C with CPU 0

Evicting from LLC with CPU 0

It's own block 15 is being evicted 

Same Core!
It's own block 15 is being evicted 

Different Cores!
Evicting CPU : 0   Block CPU : 1
Evicting from L2C with CPU 0

Evicting from L2C with CPU 0

Evicting from LLC with CPU 0

It's own block 15 is being evicted 

Different Cores!
Evicting CPU : 1   Block CPU : 0
Spy trying to Evict from 0
Hence it doesn't evict!

Checking the next block with LRU 14

Same Core!
It's own block 14 is being evicted 

Same Core!
It's own block 15 is being evicted 

Different Cores!
Evicting CPU : 0   Block CPU : 1
Evicting from L2C with CPU 0

Evicting from L2C with CPU 0

Evicting from LLC with CPU 0

It's own block 15 is being evicted 

Different Cores!
Evicting CPU : 0   Block CPU : 1
Evicting from L2C with CPU 0

Evicting from L2C with CPU 0

Evicting from LLC with CPU 0

It's own block 15 is being evicted 

Same Core!
It's own block 15 is being evicted 

Different Cores!
Evicting CPU : 1   Block CPU : 0
Spy trying to Evict from 0
Hence it doesn't evict!

Checking the next block with LRU 14

Same Core!
It's own block 14 is being evicted 

Different Cores!
Evicting CPU : 1   Block CPU : 0
Spy trying to Evict from 0
Hence it doesn't evict!

Checking the next block with LRU 14

Same Core!
It's own block 14 is being evicted 

Different Cores!
Evicting CPU : 1   Block CPU : 0
Spy trying to Evict from 0
Hence it doesn't evict!

Checking the next block with LRU 14

Same Core!
It's own block 14 is being evicted 

Different Cores!
Evicting CPU : 0   Block CPU : 1
Evicting from L2C with CPU 0

Evicting from L2C with CPU 0

Evicting from LLC with CPU 0

It's own block 15 is being evicted 

Same Core!
It's own block 15 is being evicted 

Different Cores!
Evicting CPU : 0   Block CPU : 1
Evicting from L2C with CPU 0

Evicting from L2C with CPU 0

Evicting from LLC with CPU 0

It's own block 15 is being evicted 

Different Cores!
Evicting CPU : 0   Block CPU : 1
Evicting from L2C with CPU 0

Evicting from L2C with CPU 0

Evicting from LLC with CPU 0

It's own block 15 is being evicted 

Different Cores!
Evicting CPU : 1   Block CPU : 0
Spy trying to Evict from 0
Hence it doesn't evict!

Checking the next block with LRU 14

Same Core!
It's own block 14 is being evicted 

Different Cores!
Evicting CPU : 1   Block CPU : 0
Spy trying to Evict from 0
Hence it doesn't evict!

Checking the next block with LRU 14

Different Cores!
Evicting CPU : 1   Block CPU : 0
Spy trying to Evict from 0
Hence it doesn't evict!

Checking the next block with LRU 13

Different Cores!
Evicting CPU : 1   Block CPU : 0
Spy trying to Evict from 0
Hence it doesn't evict!

Checking the next block with LRU 12

Different Cores!
Evicting CPU : 1   Block CPU : 0
Spy trying to Evict from 0
Hence it doesn't evict!

Checking the next block with LRU 11

Different Cores!
Evicting CPU : 1   Block CPU : 0
Spy trying to Evict from 0
Hence it doesn't evict!

Checking the next block with LRU 10

Randomly Evicting  11

Same Core!
It's own block 15 is being evicted 

Different Cores!
Evicting CPU : 1   Block CPU : 0
Spy trying to Evict from 0
Hence it doesn't evict!

Checking the next block with LRU 14

Different Cores!
Evicting CPU : 1   Block CPU : 0
Spy trying to Evict from 0
Hence it doesn't evict!

Checking the next block with LRU 13

Same Core!
It's own block 13 is being evicted 

Different Cores!
Evicting CPU : 0   Block CPU : 1
Evicting from L2C with CPU 0

Evicting from L2C with CPU 0

Evicting from LLC with CPU 0

It's own block 15 is being evicted 

Different Cores!
Evicting CPU : 1   Block CPU : 0
Spy trying to Evict from 0
Hence it doesn't evict!

Checking the next block with LRU 14

Same Core!
It's own block 14 is being evicted 

Different Cores!
Evicting CPU : 1   Block CPU : 0
Spy trying to Evict from 0
Hence it doesn't evict!

Checking the next block with LRU 14

Same Core!
It's own block 14 is being evicted 

Same Core!
It's own block 15 is being evicted 

Different Cores!
Evicting CPU : 0   Block CPU : 1
Evicting from L2C with CPU 0

Evicting from L2C with CPU 0

Evicting from LLC with CPU 0

It's own block 15 is being evicted 

Same Core!
It's own block 15 is being evicted 

Different Cores!
Evicting CPU : 0   Block CPU : 1
Evicting from L2C with CPU 0

Evicting from L2C with CPU 0

Evicting from LLC with CPU 0

It's own block 15 is being evicted 

Same Core!
It's own block 15 is being evicted 

Different Cores!
Evicting CPU : 0   Block CPU : 1
Evicting from L2C with CPU 0

Evicting from L2C with CPU 0

Evicting from LLC with CPU 0

It's own block 15 is being evicted 

Same Core!
It's own block 15 is being evicted 

Different Cores!
Evicting CPU : 1   Block CPU : 0
Spy trying to Evict from 0
Hence it doesn't evict!

Checking the next block with LRU 14

Same Core!
It's own block 14 is being evicted 

Different Cores!
Evicting CPU : 0   Block CPU : 1
Evicting from L2C with CPU 0

Evicting from L2C with CPU 0

Evicting from LLC with CPU 0

It's own block 15 is being evicted 

Same Core!
It's own block 15 is being evicted 

Same Core!
It's own block 15 is being evicted 

Same Core!
It's own block 15 is being evicted 

Same Core!
It's own block 15 is being evicted 

Same Core!
It's own block 15 is being evicted 

Different Cores!
Evicting CPU : 1   Block CPU : 0
Spy trying to Evict from 0
Hence it doesn't evict!

Checking the next block with LRU 14

Different Cores!
Evicting CPU : 1   Block CPU : 0
Spy trying to Evict from 0
Hence it doesn't evict!

Checking the next block with LRU 13

Different Cores!
Evicting CPU : 1   Block CPU : 0
Spy trying to Evict from 0
Hence it doesn't evict!

Checking the next block with LRU 12

Different Cores!
Evicting CPU : 1   Block CPU : 0
Spy trying to Evict from 0
Hence it doesn't evict!

Checking the next block with LRU 11

Different Cores!
Evicting CPU : 1   Block CPU : 0
Spy trying to Evict from 0
Hence it doesn't evict!

Checking the next block with LRU 10

Randomly Evicting  11

Same Core!
It's own block 15 is being evicted 

Different Cores!
Evicting CPU : 1   Block CPU : 0
Spy trying to Evict from 0
Hence it doesn't evict!

Checking the next block with LRU 14

Same Core!
It's own block 14 is being evicted 

Same Core!
It's own block 15 is being evicted 

Same Core!
It's own block 15 is being evicted 

Same Core!
It's own block 15 is being evicted 

Same Core!
It's own block 15 is being evicted 

Different Cores!
Evicting CPU : 0   Block CPU : 1
Evicting from L2C with CPU 0

Evicting from L2C with CPU 0

Evicting from LLC with CPU 0

It's own block 15 is being evicted 

Different Cores!
Evicting CPU : 1   Block CPU : 0
Spy trying to Evict from 0
Hence it doesn't evict!

Checking the next block with LRU 14

Same Core!
It's own block 14 is being evicted 

Different Cores!
Evicting CPU : 1   Block CPU : 0
Spy trying to Evict from 0
Hence it doesn't evict!

Checking the next block with LRU 14

Same Core!
It's own block 14 is being evicted 

Different Cores!
Evicting CPU : 1   Block CPU : 0
Spy trying to Evict from 0
Hence it doesn't evict!

Checking the next block with LRU 14

Different Cores!
Evicting CPU : 1   Block CPU : 0
Spy trying to Evict from 0
Hence it doesn't evict!

Checking the next block with LRU 13

Different Cores!
Evicting CPU : 1   Block CPU : 0
Spy trying to Evict from 0
Hence it doesn't evict!

Checking the next block with LRU 12

Different Cores!
Evicting CPU : 1   Block CPU : 0
Spy trying to Evict from 0
Hence it doesn't evict!

Checking the next block with LRU 11

Different Cores!
Evicting CPU : 1   Block CPU : 0
Spy trying to Evict from 0
Hence it doesn't evict!

Checking the next block with LRU 10

Randomly Evicting  11

Different Cores!
Evicting CPU : 0   Block CPU : 1
Evicting from L2C with CPU 0

Evicting from L2C with CPU 0

Evicting from LLC with CPU 0

It's own block 15 is being evicted 

Different Cores!
Evicting CPU : 0   Block CPU : 1
Evicting from L2C with CPU 0

Evicting from L2C with CPU 0

Evicting from LLC with CPU 0

It's own block 15 is being evicted 

Different Cores!
Evicting CPU : 0   Block CPU : 1
Evicting from L2C with CPU 0

Evicting from L2C with CPU 0

Evicting from LLC with CPU 0

It's own block 15 is being evicted 

Different Cores!
Evicting CPU : 0   Block CPU : 1
Evicting from L2C with CPU 0

Evicting from L2C with CPU 0

Evicting from LLC with CPU 0

It's own block 15 is being evicted 

Different Cores!
Evicting CPU : 0   Block CPU : 1
Evicting from L2C with CPU 0

Evicting from L2C with CPU 0

Evicting from LLC with CPU 0

It's own block 15 is being evicted 

Same Core!
It's own block 15 is being evicted 

Different Cores!
Evicting CPU : 0   Block CPU : 1
Evicting from L2C with CPU 0

Evicting from L2C with CPU 0

Evicting from LLC with CPU 0

It's own block 15 is being evicted 

Same Core!
It's own block 15 is being evicted 

Different Cores!
Evicting CPU : 0   Block CPU : 1
Evicting from L2C with CPU 0

Evicting from L2C with CPU 0

Evicting from LLC with CPU 0

It's own block 15 is being evicted 

Different Cores!
Evicting CPU : 0   Block CPU : 1
Evicting from L2C with CPU 0

Evicting from L2C with CPU 0

Evicting from LLC with CPU 0

It's own block 15 is being evicted 

Different Cores!
Evicting CPU : 0   Block CPU : 1
Evicting from L2C with CPU 0

Evicting from L2C with CPU 0

Evicting from LLC with CPU 0

It's own block 15 is being evicted 

Same Core!
It's own block 15 is being evicted 

Same Core!
It's own block 15 is being evicted 

Same Core!
It's own block 15 is being evicted 

Same Core!
It's own block 15 is being evicted 

Different Cores!
Evicting CPU : 1   Block CPU : 0
Spy trying to Evict from 0
Hence it doesn't evict!

Checking the next block with LRU 14

Different Cores!
Evicting CPU : 1   Block CPU : 0
Spy trying to Evict from 0
Hence it doesn't evict!

Checking the next block with LRU 13

Same Core!
It's own block 13 is being evicted 

Same Core!
It's own block 15 is being evicted 

Different Cores!
Evicting CPU : 0   Block CPU : 1
Evicting from L2C with CPU 0

Evicting from L2C with CPU 0

Evicting from LLC with CPU 0

It's own block 15 is being evicted 

Different Cores!
Evicting CPU : 1   Block CPU : 0
Spy trying to Evict from 0
Hence it doesn't evict!

Checking the next block with LRU 14

Same Core!
It's own block 14 is being evicted 

Different Cores!
Evicting CPU : 1   Block CPU : 0
Spy trying to Evict from 0
Hence it doesn't evict!

Checking the next block with LRU 14

Different Cores!
Evicting CPU : 1   Block CPU : 0
Spy trying to Evict from 0
Hence it doesn't evict!

Checking the next block with LRU 13

Different Cores!
Evicting CPU : 1   Block CPU : 0
Spy trying to Evict from 0
Hence it doesn't evict!

Checking the next block with LRU 12

Different Cores!
Evicting CPU : 1   Block CPU : 0
Spy trying to Evict from 0
Hence it doesn't evict!

Checking the next block with LRU 11

Same Core!
It's own block 11 is being evicted 

Randomly Evicting  11

Different Cores!
Evicting CPU : 1   Block CPU : 0
Spy trying to Evict from 0
Hence it doesn't evict!

Checking the next block with LRU 14

Same Core!
It's own block 14 is being evicted 

Same Core!
It's own block 15 is being evicted 

Same Core!
It's own block 15 is being evicted 

Different Cores!
Evicting CPU : 0   Block CPU : 1
Evicting from L2C with CPU 0

Evicting from L2C with CPU 0

Evicting from LLC with CPU 0

It's own block 15 is being evicted 

Different Cores!
Evicting CPU : 0   Block CPU : 1
Evicting from L2C with CPU 0

Evicting from L2C with CPU 0

Evicting from LLC with CPU 0

It's own block 15 is being evicted 

Different Cores!
Evicting CPU : 1   Block CPU : 0
Spy trying to Evict from 0
Hence it doesn't evict!

Checking the next block with LRU 14

Same Core!
It's own block 14 is being evicted 

Same Core!
It's own block 15 is being evicted 

Same Core!
It's own block 15 is being evicted 

Different Cores!
Evicting CPU : 0   Block CPU : 1
Evicting from L2C with CPU 0

Evicting from L2C with CPU 0

Evicting from LLC with CPU 0

It's own block 15 is being evicted 

Different Cores!
Evicting CPU : 0   Block CPU : 1
Evicting from L2C with CPU 0

Evicting from L2C with CPU 0

Evicting from LLC with CPU 0

It's own block 15 is being evicted 

Different Cores!
Evicting CPU : 0   Block CPU : 1
Evicting from L2C with CPU 0

Evicting from L2C with CPU 0

Evicting from LLC with CPU 0

It's own block 15 is being evicted 

Different Cores!
Evicting CPU : 1   Block CPU : 0
Spy trying to Evict from 0
Hence it doesn't evict!

Checking the next block with LRU 14

Different Cores!
Evicting CPU : 1   Block CPU : 0
Spy trying to Evict from 0
Hence it doesn't evict!

Checking the next block with LRU 13

Different Cores!
Evicting CPU : 1   Block CPU : 0
Spy trying to Evict from 0
Hence it doesn't evict!

Checking the next block with LRU 12

Different Cores!
Evicting CPU : 1   Block CPU : 0
Spy trying to Evict from 0
Hence it doesn't evict!

Checking the next block with LRU 11

Different Cores!
Evicting CPU : 1   Block CPU : 0
Spy trying to Evict from 0
Hence it doesn't evict!

Checking the next block with LRU 10

Randomly Evicting  11

Different Cores!
Evicting CPU : 1   Block CPU : 0
Spy trying to Evict from 0
Hence it doesn't evict!

Checking the next block with LRU 14

Same Core!
It's own block 14 is being evicted 

Same Core!
It's own block 15 is being evicted 

Same Core!
It's own block 15 is being evicted 

Different Cores!
Evicting CPU : 0   Block CPU : 1
Evicting from L2C with CPU 0

Evicting from L2C with CPU 0

Evicting from LLC with CPU 0

It's own block 15 is being evicted 

Same Core!
It's own block 15 is being evicted 

Same Core!
It's own block 15 is being evicted 

Same Core!
It's own block 15 is being evicted 

Different Cores!
Evicting CPU : 0   Block CPU : 1
Evicting from L2C with CPU 0

Evicting from L2C with CPU 0

Evicting from LLC with CPU 0

It's own block 15 is being evicted 

Same Core!
It's own block 15 is being evicted 

Same Core!
It's own block 15 is being evicted 

Different Cores!
Evicting CPU : 1   Block CPU : 0
Spy trying to Evict from 0
Hence it doesn't evict!

Checking the next block with LRU 14

Same Core!
It's own block 14 is being evicted 

Same Core!
It's own block 15 is being evicted 

Same Core!
It's own block 15 is being evicted 

Same Core!
It's own block 15 is being evicted 

Same Core!
It's own block 15 is being evicted 

Same Core!
It's own block 15 is being evicted 

Same Core!
It's own block 15 is being evicted 

Different Cores!
Evicting CPU : 0   Block CPU : 1
Evicting from L2C with CPU 0

Evicting from L2C with CPU 0

Evicting from LLC with CPU 0

It's own block 15 is being evicted 

Same Core!
It's own block 15 is being evicted 

Different Cores!
Evicting CPU : 1   Block CPU : 0
Spy trying to Evict from 0
Hence it doesn't evict!

Checking the next block with LRU 14

Same Core!
It's own block 14 is being evicted 

Same Core!
It's own block 15 is being evicted 

Same Core!
It's own block 15 is being evicted 

Same Core!
It's own block 15 is being evicted 

Same Core!
It's own block 15 is being evicted 

Same Core!
It's own block 15 is being evicted 

Same Core!
It's own block 15 is being evicted 

Same Core!
It's own block 15 is being evicted 

Same Core!
It's own block 15 is being evicted 

Different Cores!
Evicting CPU : 1   Block CPU : 0
Spy trying to Evict from 0
Hence it doesn't evict!

Checking the next block with LRU 14

Same Core!
It's own block 14 is being evicted 

Different Cores!
Evicting CPU : 0   Block CPU : 1
Evicting from L2C with CPU 0

Evicting from L2C with CPU 0

Evicting from LLC with CPU 0

It's own block 15 is being evicted 

Same Core!
It's own block 15 is being evicted 

Same Core!
It's own block 15 is being evicted 

Same Core!
It's own block 15 is being evicted 

Same Core!
It's own block 15 is being evicted 

Same Core!
It's own block 15 is being evicted 

Same Core!
It's own block 15 is being evicted 

Same Core!
It's own block 15 is being evicted 

Different Cores!
Evicting CPU : 1   Block CPU : 0
Spy trying to Evict from 0
Hence it doesn't evict!

Checking the next block with LRU 14

Same Core!
It's own block 14 is being evicted 

Same Core!
It's own block 15 is being evicted 

Same Core!
It's own block 15 is being evicted 

Same Core!
It's own block 15 is being evicted 

Same Core!
It's own block 15 is being evicted 

Different Cores!
Evicting CPU : 0   Block CPU : 1
Evicting from L2C with CPU 0

Evicting from L2C with CPU 0

Evicting from LLC with CPU 0

It's own block 15 is being evicted 

Different Cores!
Evicting CPU : 1   Block CPU : 0
Spy trying to Evict from 0
Hence it doesn't evict!

Checking the next block with LRU 14

Different Cores!
Evicting CPU : 1   Block CPU : 0
Spy trying to Evict from 0
Hence it doesn't evict!

Checking the next block with LRU 13

Same Core!
It's own block 13 is being evicted 

Same Core!
It's own block 15 is being evicted 

Different Cores!
Evicting CPU : 0   Block CPU : 1
Evicting from L2C with CPU 0

Evicting from L2C with CPU 0

Evicting from LLC with CPU 0

It's own block 15 is being evicted 

Same Core!
It's own block 15 is being evicted 

Same Core!
It's own block 15 is being evicted 

Different Cores!
Evicting CPU : 0   Block CPU : 1
Evicting from L2C with CPU 0

Evicting from L2C with CPU 0

Evicting from LLC with CPU 0

It's own block 15 is being evicted 

Different Cores!
Evicting CPU : 0   Block CPU : 1
Evicting from L2C with CPU 0

Evicting from L2C with CPU 0

Evicting from LLC with CPU 0

It's own block 15 is being evicted 

Same Core!
It's own block 15 is being evicted 

Different Cores!
Evicting CPU : 0   Block CPU : 1
Evicting from L2C with CPU 0

Evicting from L2C with CPU 0

Evicting from LLC with CPU 0

It's own block 15 is being evicted 

Same Core!
It's own block 15 is being evicted 

Same Core!
It's own block 15 is being evicted 

Different Cores!
Evicting CPU : 0   Block CPU : 1
Evicting from L2C with CPU 0

Evicting from L2C with CPU 0

Evicting from LLC with CPU 0

It's own block 15 is being evicted 

Different Cores!
Evicting CPU : 1   Block CPU : 0
Spy trying to Evict from 0
Hence it doesn't evict!

Checking the next block with LRU 14

Different Cores!
Evicting CPU : 1   Block CPU : 0
Spy trying to Evict from 0
Hence it doesn't evict!

Checking the next block with LRU 13

Different Cores!
Evicting CPU : 1   Block CPU : 0
Spy trying to Evict from 0
Hence it doesn't evict!

Checking the next block with LRU 12

Different Cores!
Evicting CPU : 1   Block CPU : 0
Spy trying to Evict from 0
Hence it doesn't evict!

Checking the next block with LRU 11

Different Cores!
Evicting CPU : 1   Block CPU : 0
Spy trying to Evict from 0
Hence it doesn't evict!

Checking the next block with LRU 10

Randomly Evicting  11

Same Core!
It's own block 15 is being evicted 

Different Cores!
Evicting CPU : 1   Block CPU : 0
Spy trying to Evict from 0
Hence it doesn't evict!

Checking the next block with LRU 14

Different Cores!
Evicting CPU : 1   Block CPU : 0
Spy trying to Evict from 0
Hence it doesn't evict!

Checking the next block with LRU 13

Same Core!
It's own block 13 is being evicted 

Different Cores!
Evicting CPU : 1   Block CPU : 0
Spy trying to Evict from 0
Hence it doesn't evict!

Checking the next block with LRU 14

Different Cores!
Evicting CPU : 1   Block CPU : 0
Spy trying to Evict from 0
Hence it doesn't evict!

Checking the next block with LRU 13

Same Core!
It's own block 13 is being evicted 

Same Core!
It's own block 15 is being evicted 

Same Core!
It's own block 15 is being evicted 

Same Core!
It's own block 15 is being evicted 

Different Cores!
Evicting CPU : 1   Block CPU : 0
Spy trying to Evict from 0
Hence it doesn't evict!

Checking the next block with LRU 14

Different Cores!
Evicting CPU : 1   Block CPU : 0
Spy trying to Evict from 0
Hence it doesn't evict!

Checking the next block with LRU 13

Different Cores!
Evicting CPU : 1   Block CPU : 0
Spy trying to Evict from 0
Hence it doesn't evict!

Checking the next block with LRU 12

Different Cores!
Evicting CPU : 1   Block CPU : 0
Spy trying to Evict from 0
Hence it doesn't evict!

Checking the next block with LRU 11

Different Cores!
Evicting CPU : 1   Block CPU : 0
Spy trying to Evict from 0
Hence it doesn't evict!

Checking the next block with LRU 10

Randomly Evicting  11

Same Core!
It's own block 15 is being evicted 

Same Core!
It's own block 15 is being evicted 

Different Cores!
Evicting CPU : 1   Block CPU : 0
Spy trying to Evict from 0
Hence it doesn't evict!

Checking the next block with LRU 14

Same Core!
It's own block 14 is being evicted 

Same Core!
It's own block 15 is being evicted 

Same Core!
It's own block 15 is being evicted 

Different Cores!
Evicting CPU : 1   Block CPU : 0
Spy trying to Evict from 0
Hence it doesn't evict!

Checking the next block with LRU 14

Same Core!
It's own block 14 is being evicted 

Same Core!
It's own block 15 is being evicted 

Same Core!
It's own block 15 is being evicted 

Same Core!
It's own block 15 is being evicted 

Different Cores!
Evicting CPU : 1   Block CPU : 0
Spy trying to Evict from 0
Hence it doesn't evict!

Checking the next block with LRU 14

Different Cores!
Evicting CPU : 1   Block CPU : 0
Spy trying to Evict from 0
Hence it doesn't evict!

Checking the next block with LRU 13

Same Core!
It's own block 13 is being evicted 

Same Core!
It's own block 15 is being evicted 

Same Core!
It's own block 15 is being evicted 

Different Cores!
Evicting CPU : 1   Block CPU : 0
Spy trying to Evict from 0
Hence it doesn't evict!

Checking the next block with LRU 14

Same Core!
It's own block 14 is being evicted 

Same Core!
It's own block 15 is being evicted 

Same Core!
It's own block 15 is being evicted 

Different Cores!
Evicting CPU : 0   Block CPU : 1
Evicting from L2C with CPU 0

Evicting from L2C with CPU 0

Evicting from LLC with CPU 0

It's own block 15 is being evicted 

Same Core!
It's own block 15 is being evicted 

Same Core!
It's own block 15 is being evicted 

Different Cores!
Evicting CPU : 1   Block CPU : 0
Spy trying to Evict from 0
Hence it doesn't evict!

Checking the next block with LRU 14

Same Core!
It's own block 14 is being evicted 

Same Core!
It's own block 15 is being evicted 

Same Core!
It's own block 15 is being evicted 

Different Cores!
Evicting CPU : 1   Block CPU : 0
Spy trying to Evict from 0
Hence it doesn't evict!

Checking the next block with LRU 14

Same Core!
It's own block 14 is being evicted 

Different Cores!
Evicting CPU : 1   Block CPU : 0
Spy trying to Evict from 0
Hence it doesn't evict!

Checking the next block with LRU 14

Different Cores!
Evicting CPU : 1   Block CPU : 0
Spy trying to Evict from 0
Hence it doesn't evict!

Checking the next block with LRU 13

Same Core!
It's own block 13 is being evicted 

Same Core!
It's own block 15 is being evicted 

Different Cores!
Evicting CPU : 1   Block CPU : 0
Spy trying to Evict from 0
Hence it doesn't evict!

Checking the next block with LRU 14

Different Cores!
Evicting CPU : 1   Block CPU : 0
Spy trying to Evict from 0
Hence it doesn't evict!

Checking the next block with LRU 13

Same Core!
It's own block 13 is being evicted 

Different Cores!
Evicting CPU : 1   Block CPU : 0
Spy trying to Evict from 0
Hence it doesn't evict!

Checking the next block with LRU 14

Different Cores!
Evicting CPU : 1   Block CPU : 0
Spy trying to Evict from 0
Hence it doesn't evict!

Checking the next block with LRU 13

Different Cores!
Evicting CPU : 1   Block CPU : 0
Spy trying to Evict from 0
Hence it doesn't evict!

Checking the next block with LRU 12

Same Core!
It's own block 12 is being evicted 

Different Cores!
Evicting CPU : 0   Block CPU : 1
Evicting from L2C with CPU 0

Evicting from L2C with CPU 0

Evicting from LLC with CPU 0

It's own block 15 is being evicted 

Same Core!
It's own block 15 is being evicted 

Different Cores!
Evicting CPU : 1   Block CPU : 0
Spy trying to Evict from 0
Hence it doesn't evict!

Checking the next block with LRU 14

Same Core!
It's own block 14 is being evicted 

Different Cores!
Evicting CPU : 1   Block CPU : 0
Spy trying to Evict from 0
Hence it doesn't evict!

Checking the next block with LRU 14

Different Cores!
Evicting CPU : 1   Block CPU : 0
Spy trying to Evict from 0
Hence it doesn't evict!

Checking the next block with LRU 13

Same Core!
It's own block 13 is being evicted 

Same Core!
It's own block 15 is being evicted 

Same Core!
It's own block 15 is being evicted 

Different Cores!
Evicting CPU : 0   Block CPU : 1
Evicting from L2C with CPU 0

Evicting from L2C with CPU 0

Evicting from LLC with CPU 0

It's own block 15 is being evicted 

Same Core!
It's own block 15 is being evicted 

Different Cores!
Evicting CPU : 1   Block CPU : 0
Spy trying to Evict from 0
Hence it doesn't evict!

Checking the next block with LRU 14

Different Cores!
Evicting CPU : 1   Block CPU : 0
Spy trying to Evict from 0
Hence it doesn't evict!

Checking the next block with LRU 13

Same Core!
It's own block 13 is being evicted 

Same Core!
It's own block 15 is being evicted 

Different Cores!
Evicting CPU : 0   Block CPU : 1
Evicting from L2C with CPU 0

Evicting from L2C with CPU 0

Evicting from LLC with CPU 0

It's own block 15 is being evicted 

Same Core!
It's own block 15 is being evicted 

Different Cores!
Evicting CPU : 1   Block CPU : 0
Spy trying to Evict from 0
Hence it doesn't evict!

Checking the next block with LRU 14

Same Core!
It's own block 14 is being evicted 

Different Cores!
Evicting CPU : 1   Block CPU : 0
Spy trying to Evict from 0
Hence it doesn't evict!

Checking the next block with LRU 14

Different Cores!
Evicting CPU : 1   Block CPU : 0
Spy trying to Evict from 0
Hence it doesn't evict!

Checking the next block with LRU 13

Same Core!
It's own block 13 is being evicted 

Same Core!
It's own block 15 is being evicted 

Same Core!
It's own block 15 is being evicted 

Same Core!
It's own block 15 is being evicted 

Different Cores!
Evicting CPU : 1   Block CPU : 0
Spy trying to Evict from 0
Hence it doesn't evict!

Checking the next block with LRU 14

Different Cores!
Evicting CPU : 1   Block CPU : 0
Spy trying to Evict from 0
Hence it doesn't evict!

Checking the next block with LRU 13

Same Core!
It's own block 13 is being evicted 

Same Core!
It's own block 15 is being evicted 

Different Cores!
Evicting CPU : 1   Block CPU : 0
Spy trying to Evict from 0
Hence it doesn't evict!

Checking the next block with LRU 14

Different Cores!
Evicting CPU : 1   Block CPU : 0
Spy trying to Evict from 0
Hence it doesn't evict!

Checking the next block with LRU 13

Same Core!
It's own block 13 is being evicted 

Different Cores!
Evicting CPU : 1   Block CPU : 0
Spy trying to Evict from 0
Hence it doesn't evict!

Checking the next block with LRU 14

Different Cores!
Evicting CPU : 1   Block CPU : 0
Spy trying to Evict from 0
Hence it doesn't evict!

Checking the next block with LRU 13

Different Cores!
Evicting CPU : 1   Block CPU : 0
Spy trying to Evict from 0
Hence it doesn't evict!

Checking the next block with LRU 12

Different Cores!
Evicting CPU : 1   Block CPU : 0
Spy trying to Evict from 0
Hence it doesn't evict!

Checking the next block with LRU 11

Different Cores!
Evicting CPU : 1   Block CPU : 0
Spy trying to Evict from 0
Hence it doesn't evict!

Checking the next block with LRU 10

Randomly Evicting  11

Same Core!
It's own block 15 is being evicted 

Same Core!
It's own block 15 is being evicted 

Same Core!
It's own block 15 is being evicted 

Same Core!
It's own block 15 is being evicted 

Same Core!
It's own block 15 is being evicted 

Same Core!
It's own block 15 is being evicted 

Different Cores!
Evicting CPU : 1   Block CPU : 0
Spy trying to Evict from 0
Hence it doesn't evict!

Checking the next block with LRU 14

Different Cores!
Evicting CPU : 1   Block CPU : 0
Spy trying to Evict from 0
Hence it doesn't evict!

Checking the next block with LRU 13

Same Core!
It's own block 13 is being evicted 

Same Core!
It's own block 15 is being evicted 

Different Cores!
Evicting CPU : 1   Block CPU : 0
Spy trying to Evict from 0
Hence it doesn't evict!

Checking the next block with LRU 14

Different Cores!
Evicting CPU : 1   Block CPU : 0
Spy trying to Evict from 0
Hence it doesn't evict!

Checking the next block with LRU 13

Different Cores!
Evicting CPU : 1   Block CPU : 0
Spy trying to Evict from 0
Hence it doesn't evict!

Checking the next block with LRU 12

Same Core!
It's own block 12 is being evicted 

Different Cores!
Evicting CPU : 0   Block CPU : 1
Evicting from L2C with CPU 0

Evicting from L2C with CPU 0

Evicting from LLC with CPU 0

It's own block 15 is being evicted 

Same Core!
It's own block 15 is being evicted 

Different Cores!
Evicting CPU : 0   Block CPU : 1
Evicting from L2C with CPU 0

Evicting from L2C with CPU 0

Evicting from LLC with CPU 0

It's own block 15 is being evicted 

Different Cores!
Evicting CPU : 1   Block CPU : 0
Spy trying to Evict from 0
Hence it doesn't evict!

Checking the next block with LRU 14

Different Cores!
Evicting CPU : 1   Block CPU : 0
Spy trying to Evict from 0
Hence it doesn't evict!

Checking the next block with LRU 13

Same Core!
It's own block 13 is being evicted 

Same Core!
It's own block 15 is being evicted 

Same Core!
It's own block 15 is being evicted 

Different Cores!
Evicting CPU : 1   Block CPU : 0
Spy trying to Evict from 0
Hence it doesn't evict!

Checking the next block with LRU 14

Different Cores!
Evicting CPU : 1   Block CPU : 0
Spy trying to Evict from 0
Hence it doesn't evict!

Checking the next block with LRU 13

Different Cores!
Evicting CPU : 1   Block CPU : 0
Spy trying to Evict from 0
Hence it doesn't evict!

Checking the next block with LRU 12

Same Core!
It's own block 12 is being evicted 

Different Cores!
Evicting CPU : 1   Block CPU : 0
Spy trying to Evict from 0
Hence it doesn't evict!

Checking the next block with LRU 14

Same Core!
It's own block 14 is being evicted 

Different Cores!
Evicting CPU : 1   Block CPU : 0
Spy trying to Evict from 0
Hence it doesn't evict!

Checking the next block with LRU 14

Different Cores!
Evicting CPU : 1   Block CPU : 0
Spy trying to Evict from 0
Hence it doesn't evict!

Checking the next block with LRU 13

Same Core!
It's own block 13 is being evicted 

Same Core!
It's own block 15 is being evicted 

Different Cores!
Evicting CPU : 1   Block CPU : 0
Spy trying to Evict from 0
Hence it doesn't evict!

Checking the next block with LRU 14

Same Core!
It's own block 14 is being evicted 

Same Core!
It's own block 15 is being evicted 

Different Cores!
Evicting CPU : 1   Block CPU : 0
Spy trying to Evict from 0
Hence it doesn't evict!

Checking the next block with LRU 14

Same Core!
It's own block 14 is being evicted 

Different Cores!
Evicting CPU : 1   Block CPU : 0
Spy trying to Evict from 0
Hence it doesn't evict!

Checking the next block with LRU 14

Different Cores!
Evicting CPU : 1   Block CPU : 0
Spy trying to Evict from 0
Hence it doesn't evict!

Checking the next block with LRU 13

Same Core!
It's own block 13 is being evicted 

Same Core!
It's own block 15 is being evicted 

Different Cores!
Evicting CPU : 1   Block CPU : 0
Spy trying to Evict from 0
Hence it doesn't evict!

Checking the next block with LRU 14

Different Cores!
Evicting CPU : 1   Block CPU : 0
Spy trying to Evict from 0
Hence it doesn't evict!

Checking the next block with LRU 13

Same Core!
It's own block 13 is being evicted 

Same Core!
It's own block 15 is being evicted 

Different Cores!
Evicting CPU : 1   Block CPU : 0
Spy trying to Evict from 0
Hence it doesn't evict!

Checking the next block with LRU 14

Same Core!
It's own block 14 is being evicted 

Different Cores!
Evicting CPU : 1   Block CPU : 0
Spy trying to Evict from 0
Hence it doesn't evict!

Checking the next block with LRU 14

Same Core!
It's own block 14 is being evicted 

Same Core!
It's own block 15 is being evicted 

Same Core!
It's own block 15 is being evicted 

Different Cores!
Evicting CPU : 1   Block CPU : 0
Spy trying to Evict from 0
Hence it doesn't evict!

Checking the next block with LRU 14

Different Cores!
Evicting CPU : 1   Block CPU : 0
Spy trying to Evict from 0
Hence it doesn't evict!

Checking the next block with LRU 13

Same Core!
It's own block 13 is being evicted 

Same Core!
It's own block 15 is being evicted 

Same Core!
It's own block 15 is being evicted 

Different Cores!
Evicting CPU : 0   Block CPU : 1
Evicting from L2C with CPU 0

Evicting from L2C with CPU 0

Evicting from LLC with CPU 0

It's own block 15 is being evicted 

Different Cores!
Evicting CPU : 1   Block CPU : 0
Spy trying to Evict from 0
Hence it doesn't evict!

Checking the next block with LRU 14

Different Cores!
Evicting CPU : 1   Block CPU : 0
Spy trying to Evict from 0
Hence it doesn't evict!

Checking the next block with LRU 13

Different Cores!
Evicting CPU : 1   Block CPU : 0
Spy trying to Evict from 0
Hence it doesn't evict!

Checking the next block with LRU 12

Same Core!
It's own block 12 is being evicted 

Different Cores!
Evicting CPU : 1   Block CPU : 0
Spy trying to Evict from 0
Hence it doesn't evict!

Checking the next block with LRU 14

Same Core!
It's own block 14 is being evicted 

Different Cores!
Evicting CPU : 0   Block CPU : 1
Evicting from L2C with CPU 0

Evicting from L2C with CPU 0

Evicting from LLC with CPU 0

It's own block 15 is being evicted 

Same Core!
It's own block 15 is being evicted 

Same Core!
It's own block 15 is being evicted 

Different Cores!
Evicting CPU : 0   Block CPU : 1
Evicting from L2C with CPU 0

Evicting from L2C with CPU 0

Evicting from LLC with CPU 0

It's own block 15 is being evicted 

Different Cores!
Evicting CPU : 1   Block CPU : 0
Spy trying to Evict from 0
Hence it doesn't evict!

Checking the next block with LRU 14

Different Cores!
Evicting CPU : 1   Block CPU : 0
Spy trying to Evict from 0
Hence it doesn't evict!

Checking the next block with LRU 13

Same Core!
It's own block 13 is being evicted 

Different Cores!
Evicting CPU : 1   Block CPU : 0
Spy trying to Evict from 0
Hence it doesn't evict!

Checking the next block with LRU 14

Different Cores!
Evicting CPU : 1   Block CPU : 0
Spy trying to Evict from 0
Hence it doesn't evict!

Checking the next block with LRU 13

Same Core!
It's own block 13 is being evicted 

Different Cores!
Evicting CPU : 0   Block CPU : 1
Evicting from L2C with CPU 0

Evicting from L2C with CPU 0

Evicting from LLC with CPU 0

It's own block 15 is being evicted 

Different Cores!
Evicting CPU : 0   Block CPU : 1
Evicting from L2C with CPU 0

Evicting from L2C with CPU 0

Evicting from LLC with CPU 0

It's own block 15 is being evicted 

Different Cores!
Evicting CPU : 1   Block CPU : 0
Spy trying to Evict from 0
Hence it doesn't evict!

Checking the next block with LRU 14

Different Cores!
Evicting CPU : 1   Block CPU : 0
Spy trying to Evict from 0
Hence it doesn't evict!

Checking the next block with LRU 13

Different Cores!
Evicting CPU : 1   Block CPU : 0
Spy trying to Evict from 0
Hence it doesn't evict!

Checking the next block with LRU 12

Same Core!
It's own block 12 is being evicted 

Same Core!
It's own block 15 is being evicted 

Different Cores!
Evicting CPU : 1   Block CPU : 0
Spy trying to Evict from 0
Hence it doesn't evict!

Checking the next block with LRU 14

Same Core!
It's own block 14 is being evicted 

Same Core!
It's own block 15 is being evicted 

Same Core!
It's own block 15 is being evicted 

Different Cores!
Evicting CPU : 1   Block CPU : 0
Spy trying to Evict from 0
Hence it doesn't evict!

Checking the next block with LRU 14

Same Core!
It's own block 14 is being evicted 

Same Core!
It's own block 15 is being evicted 

Same Core!
It's own block 15 is being evicted 

Different Cores!
Evicting CPU : 1   Block CPU : 0
Spy trying to Evict from 0
Hence it doesn't evict!

Checking the next block with LRU 14

Same Core!
It's own block 14 is being evicted 

Different Cores!
Evicting CPU : 1   Block CPU : 0
Spy trying to Evict from 0
Hence it doesn't evict!

Checking the next block with LRU 14

Same Core!
It's own block 14 is being evicted 

Different Cores!
Evicting CPU : 1   Block CPU : 0
Spy trying to Evict from 0
Hence it doesn't evict!

Checking the next block with LRU 14

Different Cores!
Evicting CPU : 1   Block CPU : 0
Spy trying to Evict from 0
Hence it doesn't evict!

Checking the next block with LRU 13

Different Cores!
Evicting CPU : 1   Block CPU : 0
Spy trying to Evict from 0
Hence it doesn't evict!

Checking the next block with LRU 12

Same Core!
It's own block 12 is being evicted 

Same Core!
It's own block 15 is being evicted 

Same Core!
It's own block 15 is being evicted 

Same Core!
It's own block 15 is being evicted 

Same Core!
It's own block 15 is being evicted 

Same Core!
It's own block 15 is being evicted 

Different Cores!
Evicting CPU : 0   Block CPU : 1
Evicting from L2C with CPU 0

Evicting from L2C with CPU 0

Evicting from LLC with CPU 0

It's own block 15 is being evicted 

Same Core!
It's own block 15 is being evicted 

Different Cores!
Evicting CPU : 1   Block CPU : 0
Spy trying to Evict from 0
Hence it doesn't evict!

Checking the next block with LRU 14

Different Cores!
Evicting CPU : 1   Block CPU : 0
Spy trying to Evict from 0
Hence it doesn't evict!

Checking the next block with LRU 13

Different Cores!
Evicting CPU : 1   Block CPU : 0
Spy trying to Evict from 0
Hence it doesn't evict!

Checking the next block with LRU 12

Same Core!
It's own block 12 is being evicted 

Same Core!
It's own block 15 is being evicted 

Same Core!
It's own block 15 is being evicted 

Different Cores!
Evicting CPU : 0   Block CPU : 1
Evicting from L2C with CPU 0

Evicting from L2C with CPU 0

Evicting from LLC with CPU 0

It's own block 15 is being evicted 

Same Core!
It's own block 15 is being evicted 

Same Core!
It's own block 15 is being evicted 

Same Core!
It's own block 15 is being evicted 

Different Cores!
Evicting CPU : 0   Block CPU : 1
Evicting from L2C with CPU 0

Evicting from L2C with CPU 0

Evicting from LLC with CPU 0

It's own block 15 is being evicted 

Same Core!
It's own block 15 is being evicted 

Same Core!
It's own block 15 is being evicted 

Same Core!
It's own block 15 is being evicted 

Different Cores!
Evicting CPU : 1   Block CPU : 0
Spy trying to Evict from 0
Hence it doesn't evict!

Checking the next block with LRU 14

Different Cores!
Evicting CPU : 1   Block CPU : 0
Spy trying to Evict from 0
Hence it doesn't evict!

Checking the next block with LRU 13

Different Cores!
Evicting CPU : 1   Block CPU : 0
Spy trying to Evict from 0
Hence it doesn't evict!

Checking the next block with LRU 12

Different Cores!
Evicting CPU : 1   Block CPU : 0
Spy trying to Evict from 0
Hence it doesn't evict!

Checking the next block with LRU 11

Same Core!
It's own block 11 is being evicted 

Randomly Evicting  11

Same Core!
It's own block 15 is being evicted 

Same Core!
It's own block 15 is being evicted 

Different Cores!
Evicting CPU : 0   Block CPU : 1
Evicting from L2C with CPU 0

Evicting from L2C with CPU 0

Evicting from LLC with CPU 0

It's own block 15 is being evicted 

Same Core!
It's own block 15 is being evicted 

Same Core!
It's own block 15 is being evicted 

Different Cores!
Evicting CPU : 0   Block CPU : 1
Evicting from L2C with CPU 0

Evicting from L2C with CPU 0

Evicting from LLC with CPU 0

It's own block 15 is being evicted 

Different Cores!
Evicting CPU : 1   Block CPU : 0
Spy trying to Evict from 0
Hence it doesn't evict!

Checking the next block with LRU 14

Same Core!
It's own block 14 is being evicted 

Same Core!
It's own block 15 is being evicted 

Different Cores!
Evicting CPU : 1   Block CPU : 0
Spy trying to Evict from 0
Hence it doesn't evict!

Checking the next block with LRU 14

Same Core!
It's own block 14 is being evicted 

Different Cores!
Evicting CPU : 1   Block CPU : 0
Spy trying to Evict from 0
Hence it doesn't evict!

Checking the next block with LRU 14

Same Core!
It's own block 14 is being evicted 

Same Core!
It's own block 15 is being evicted 

Same Core!
It's own block 15 is being evicted 

Same Core!
It's own block 15 is being evicted 

Same Core!
It's own block 15 is being evicted 

Same Core!
It's own block 15 is being evicted 

Same Core!
It's own block 15 is being evicted 

Different Cores!
Evicting CPU : 0   Block CPU : 1
Evicting from L2C with CPU 0

Evicting from L2C with CPU 0

Evicting from LLC with CPU 0

It's own block 15 is being evicted 

Different Cores!
Evicting CPU : 1   Block CPU : 0
Spy trying to Evict from 0
Hence it doesn't evict!

Checking the next block with LRU 14

Different Cores!
Evicting CPU : 1   Block CPU : 0
Spy trying to Evict from 0
Hence it doesn't evict!

Checking the next block with LRU 13

Same Core!
It's own block 13 is being evicted 

Same Core!
It's own block 15 is being evicted 

Different Cores!
Evicting CPU : 1   Block CPU : 0
Spy trying to Evict from 0
Hence it doesn't evict!

Checking the next block with LRU 14

Same Core!
It's own block 14 is being evicted 

Different Cores!
Evicting CPU : 1   Block CPU : 0
Spy trying to Evict from 0
Hence it doesn't evict!

Checking the next block with LRU 14

Different Cores!
Evicting CPU : 1   Block CPU : 0
Spy trying to Evict from 0
Hence it doesn't evict!

Checking the next block with LRU 13

Different Cores!
Evicting CPU : 1   Block CPU : 0
Spy trying to Evict from 0
Hence it doesn't evict!

Checking the next block with LRU 12

Same Core!
It's own block 12 is being evicted 

Same Core!
It's own block 15 is being evicted 

Same Core!
It's own block 15 is being evicted 

Same Core!
It's own block 15 is being evicted 

Same Core!
It's own block 15 is being evicted 

Same Core!
It's own block 15 is being evicted 

Same Core!
It's own block 15 is being evicted 

Same Core!
It's own block 15 is being evicted 

Same Core!
It's own block 15 is being evicted 

Same Core!
It's own block 15 is being evicted 

Different Cores!
Evicting CPU : 0   Block CPU : 1
Evicting from L2C with CPU 0

Evicting from L2C with CPU 0

Evicting from LLC with CPU 0

It's own block 15 is being evicted 

Different Cores!
Evicting CPU : 1   Block CPU : 0
Spy trying to Evict from 0
Hence it doesn't evict!

Checking the next block with LRU 14

Same Core!
It's own block 14 is being evicted 

Same Core!
It's own block 15 is being evicted 

Different Cores!
Evicting CPU : 0   Block CPU : 1
Evicting from L2C with CPU 0

Evicting from L2C with CPU 0

Evicting from LLC with CPU 0

It's own block 15 is being evicted 

Different Cores!
Evicting CPU : 1   Block CPU : 0
Spy trying to Evict from 0
Hence it doesn't evict!

Checking the next block with LRU 14

Same Core!
It's own block 14 is being evicted 

Different Cores!
Evicting CPU : 1   Block CPU : 0
Spy trying to Evict from 0
Hence it doesn't evict!

Checking the next block with LRU 14

Same Core!
It's own block 14 is being evicted 

Same Core!
It's own block 15 is being evicted 

Different Cores!
Evicting CPU : 0   Block CPU : 1
Evicting from L2C with CPU 0

Evicting from L2C with CPU 0

Evicting from LLC with CPU 0

It's own block 15 is being evicted 

Different Cores!
Evicting CPU : 1   Block CPU : 0
Spy trying to Evict from 0
Hence it doesn't evict!

Checking the next block with LRU 14

Different Cores!
Evicting CPU : 1   Block CPU : 0
Spy trying to Evict from 0
Hence it doesn't evict!

Checking the next block with LRU 13

Different Cores!
Evicting CPU : 1   Block CPU : 0
Spy trying to Evict from 0
Hence it doesn't evict!

Checking the next block with LRU 12

Same Core!
It's own block 12 is being evicted 

Different Cores!
Evicting CPU : 1   Block CPU : 0
Spy trying to Evict from 0
Hence it doesn't evict!

Checking the next block with LRU 14

Same Core!
It's own block 14 is being evicted 

Same Core!
It's own block 15 is being evicted 

Different Cores!
Evicting CPU : 1   Block CPU : 0
Spy trying to Evict from 0
Hence it doesn't evict!

Checking the next block with LRU 14

Same Core!
It's own block 14 is being evicted 

Same Core!
It's own block 15 is being evicted 

Same Core!
It's own block 15 is being evicted 

Different Cores!
Evicting CPU : 0   Block CPU : 1
Evicting from L2C with CPU 0

Evicting from L2C with CPU 0

Evicting from LLC with CPU 0

It's own block 15 is being evicted 

Same Core!
It's own block 15 is being evicted 

Same Core!
It's own block 15 is being evicted 

Same Core!
It's own block 15 is being evicted 

Different Cores!
Evicting CPU : 1   Block CPU : 0
Spy trying to Evict from 0
Hence it doesn't evict!

Checking the next block with LRU 14

Different Cores!
Evicting CPU : 1   Block CPU : 0
Spy trying to Evict from 0
Hence it doesn't evict!

Checking the next block with LRU 13

Same Core!
It's own block 13 is being evicted 

Different Cores!
Evicting CPU : 0   Block CPU : 1
Evicting from L2C with CPU 0

Evicting from L2C with CPU 0

Evicting from LLC with CPU 0

It's own block 15 is being evicted 

Different Cores!
Evicting CPU : 0   Block CPU : 1
Evicting from L2C with CPU 0

Evicting from L2C with CPU 0

Evicting from LLC with CPU 0

It's own block 15 is being evicted 

Different Cores!
Evicting CPU : 1   Block CPU : 0
Spy trying to Evict from 0
Hence it doesn't evict!

Checking the next block with LRU 14

Different Cores!
Evicting CPU : 1   Block CPU : 0
Spy trying to Evict from 0
Hence it doesn't evict!

Checking the next block with LRU 13

Same Core!
It's own block 13 is being evicted 

Different Cores!
Evicting CPU : 0   Block CPU : 1
Evicting from L2C with CPU 0

Evicting from L2C with CPU 0

Evicting from LLC with CPU 0

It's own block 15 is being evicted 

Same Core!
It's own block 15 is being evicted 

Different Cores!
Evicting CPU : 0   Block CPU : 1
Evicting from L2C with CPU 0

Evicting from L2C with CPU 0

Evicting from LLC with CPU 0

It's own block 15 is being evicted 

Same Core!
It's own block 15 is being evicted 

Same Core!
It's own block 15 is being evicted 

Different Cores!
Evicting CPU : 1   Block CPU : 0
Spy trying to Evict from 0
Hence it doesn't evict!

Checking the next block with LRU 14

Same Core!
It's own block 14 is being evicted 

Different Cores!
Evicting CPU : 1   Block CPU : 0
Spy trying to Evict from 0
Hence it doesn't evict!

Checking the next block with LRU 14

Different Cores!
Evicting CPU : 1   Block CPU : 0
Spy trying to Evict from 0
Hence it doesn't evict!

Checking the next block with LRU 13

Same Core!
It's own block 13 is being evicted 

Different Cores!
Evicting CPU : 1   Block CPU : 0
Spy trying to Evict from 0
Hence it doesn't evict!

Checking the next block with LRU 14

Different Cores!
Evicting CPU : 1   Block CPU : 0
Spy trying to Evict from 0
Hence it doesn't evict!

Checking the next block with LRU 13

Same Core!
It's own block 13 is being evicted 

Same Core!
It's own block 15 is being evicted 

Same Core!
It's own block 15 is being evicted 

Same Core!
It's own block 15 is being evicted 

Different Cores!
Evicting CPU : 1   Block CPU : 0
Spy trying to Evict from 0
Hence it doesn't evict!

Checking the next block with LRU 14

Same Core!
It's own block 14 is being evicted 

Same Core!
It's own block 15 is being evicted 

Different Cores!
Evicting CPU : 1   Block CPU : 0
Spy trying to Evict from 0
Hence it doesn't evict!

Checking the next block with LRU 14

Same Core!
It's own block 14 is being evicted 

Same Core!
It's own block 15 is being evicted 

Same Core!
It's own block 15 is being evicted 

Same Core!
It's own block 15 is being evicted 

Same Core!
It's own block 15 is being evicted 

Same Core!
It's own block 15 is being evicted 

Same Core!
It's own block 15 is being evicted 

Different Cores!
Evicting CPU : 1   Block CPU : 0
Spy trying to Evict from 0
Hence it doesn't evict!

Checking the next block with LRU 14

Same Core!
It's own block 14 is being evicted 

Different Cores!
Evicting CPU : 1   Block CPU : 0
Spy trying to Evict from 0
Hence it doesn't evict!

Checking the next block with LRU 14

Different Cores!
Evicting CPU : 1   Block CPU : 0
Spy trying to Evict from 0
Hence it doesn't evict!

Checking the next block with LRU 13

Different Cores!
Evicting CPU : 1   Block CPU : 0
Spy trying to Evict from 0
Hence it doesn't evict!

Checking the next block with LRU 12

Same Core!
It's own block 12 is being evicted 

Different Cores!
Evicting CPU : 0   Block CPU : 1
Evicting from L2C with CPU 0

Evicting from L2C with CPU 0

Evicting from LLC with CPU 0

It's own block 15 is being evicted 

Same Core!
It's own block 15 is being evicted 

Same Core!
It's own block 15 is being evicted 

Same Core!
It's own block 15 is being evicted 

Same Core!
It's own block 15 is being evicted 

Different Cores!
Evicting CPU : 0   Block CPU : 1
Evicting from L2C with CPU 0

Evicting from L2C with CPU 0

Evicting from LLC with CPU 0

It's own block 15 is being evicted 

Same Core!
It's own block 15 is being evicted 

Same Core!
It's own block 15 is being evicted 

Different Cores!
Evicting CPU : 1   Block CPU : 0
Spy trying to Evict from 0
Hence it doesn't evict!

Checking the next block with LRU 14

Same Core!
It's own block 14 is being evicted 

Different Cores!
Evicting CPU : 1   Block CPU : 0
Spy trying to Evict from 0
Hence it doesn't evict!

Checking the next block with LRU 14

Same Core!
It's own block 14 is being evicted 

Same Core!
It's own block 15 is being evicted 

Same Core!
It's own block 15 is being evicted 

Different Cores!
Evicting CPU : 1   Block CPU : 0
Spy trying to Evict from 0
Hence it doesn't evict!

Checking the next block with LRU 14

Different Cores!
Evicting CPU : 1   Block CPU : 0
Spy trying to Evict from 0
Hence it doesn't evict!

Checking the next block with LRU 13

Different Cores!
Evicting CPU : 1   Block CPU : 0
Spy trying to Evict from 0
Hence it doesn't evict!

Checking the next block with LRU 12

Different Cores!
Evicting CPU : 1   Block CPU : 0
Spy trying to Evict from 0
Hence it doesn't evict!

Checking the next block with LRU 11

Different Cores!
Evicting CPU : 1   Block CPU : 0
Spy trying to Evict from 0
Hence it doesn't evict!

Checking the next block with LRU 10

Randomly Evicting  11

Different Cores!
Evicting CPU : 0   Block CPU : 1
Evicting from L2C with CPU 0

Evicting from L2C with CPU 0

Evicting from LLC with CPU 0

It's own block 15 is being evicted 

Different Cores!
Evicting CPU : 1   Block CPU : 0
Spy trying to Evict from 0
Hence it doesn't evict!

Checking the next block with LRU 14

Different Cores!
Evicting CPU : 1   Block CPU : 0
Spy trying to Evict from 0
Hence it doesn't evict!

Checking the next block with LRU 13

Same Core!
It's own block 13 is being evicted 

Different Cores!
Evicting CPU : 0   Block CPU : 1
Evicting from L2C with CPU 0

Evicting from L2C with CPU 0

Evicting from LLC with CPU 0

It's own block 15 is being evicted 

Same Core!
It's own block 15 is being evicted 

Different Cores!
Evicting CPU : 1   Block CPU : 0
Spy trying to Evict from 0
Hence it doesn't evict!

Checking the next block with LRU 14

Different Cores!
Evicting CPU : 1   Block CPU : 0
Spy trying to Evict from 0
Hence it doesn't evict!

Checking the next block with LRU 13

Different Cores!
Evicting CPU : 1   Block CPU : 0
Spy trying to Evict from 0
Hence it doesn't evict!

Checking the next block with LRU 12

Same Core!
It's own block 12 is being evicted 

Different Cores!
Evicting CPU : 0   Block CPU : 1
Evicting from L2C with CPU 0

Evicting from L2C with CPU 0

[...]

Same Core!
It's own block 13 is being evicted 

Different Cores!
Evicting CPU : 0   Block CPU : 1
Evicting from L2C with CPU 0

Evicting from L2C with CPU 0

Evicting from LLC with CPU 0

It's own block 15 is being evicted 

Same Core!
It's own block 15 is being evicted 

Different Cores!
Evicting CPU : 1   Block CPU : 0
Spy trying to Evict from 0
Hence it doesn't evict!

Checking the next block with LRU 14

Same Core!
It's own block 14 is being evicted 

Different Cores!
Evicting CPU : 1   Block CPU : 0
Spy trying to Evict from 0
Hence it doesn't evict!

Checking the next block with LRU 14

Same Core!
It's own block 14 is being evicted 

Same Core!
It's own block 15 is being evicted 

Different Cores!
Evicting CPU : 0   Block CPU : 1
Evicting from L2C with CPU 0

Evicting from L2C with CPU 0

Evicting from LLC with CPU 0

It's own block 15 is being evicted 

Different Cores!
Evicting CPU : 1   Block CPU : 0
Spy trying to Evict from 0
Hence it doesn't evict!

Checking the next block with LRU 14

Different Cores!
Evicting CPU : 1   Block CPU : 0
Spy trying to Evict from 0
Hence it doesn't evict!

Checking the next block with LRU 13

Same Core!
It's own block 13 is being evicted 

Same Core!
It's own block 15 is being evicted 

Different Cores!
Evicting CPU : 1   Block CPU : 0
Spy trying to Evict from 0
Hence it doesn't evict!

Checking the next block with LRU 14

Same Core!
It's own block 14 is being evicted 

Same Core!
It's own block 15 is being evicted 

Same Core!
It's own block 15 is being evicted 

Different Cores!
Evicting CPU : 0   Block CPU : 1
Evicting from L2C with CPU 0

Evicting from L2C with CPU 0

Evicting from LLC with CPU 0

It's own block 15 is being evicted 

Same Core!
It's own block 15 is being evicted 

Different Cores!
Evicting CPU : 1   Block CPU : 0
Spy trying to Evict from 0
Hence it doesn't evict!

Checking the next block with LRU 14

Same Core!
It's own block 14 is being evicted 

Same Core!
It's own block 15 is being evicted 

Same Core!
It's own block 15 is being evicted 

Same Core!
It's own block 15 is being evicted 

Different Cores!
Evicting CPU : 1   Block CPU : 0
Spy trying to Evict from 0
Hence it doesn't evict!

Checking the next block with LRU 14

Same Core!
It's own block 14 is being evicted 

Different Cores!
Evicting CPU : 0   Block CPU : 1
Evicting from L2C with CPU 0

Evicting from L2C with CPU 0

Evicting from LLC with CPU 0

It's own block 15 is being evicted 

Different Cores!
Evicting CPU : 1   Block CPU : 0
Spy trying to Evict from 0
Hence it doesn't evict!

Checking the next block with LRU 14

Different Cores!
Evicting CPU : 1   Block CPU : 0
Spy trying to Evict from 0
Hence it doesn't evict!

Checking the next block with LRU 13

Same Core!
It's own block 13 is being evicted 

Same Core!
It's own block 15 is being evicted 

Same Core!
It's own block 15 is being evicted 

Same Core!
It's own block 15 is being evicted 

Different Cores!
Evicting CPU : 1   Block CPU : 0
Spy trying to Evict from 0
Hence it doesn't evict!

Checking the next block with LRU 14

Same Core!
It's own block 14 is being evicted 

Same Core!
It's own block 15 is being evicted 

Same Core!
It's own block 15 is being evicted 

Different Cores!
Evicting CPU : 1   Block CPU : 0
Spy trying to Evict from 0
Hence it doesn't evict!

Checking the next block with LRU 14

Same Core!
It's own block 14 is being evicted 

Same Core!
It's own block 15 is being evicted 

Same Core!
It's own block 15 is being evicted 

Different Cores!
Evicting CPU : 1   Block CPU : 0
Spy trying to Evict from 0
Hence it doesn't evict!

Checking the next block with LRU 14

Same Core!
It's own block 14 is being evicted 

Same Core!
It's own block 15 is being evicted 

Different Cores!
Evicting CPU : 0   Block CPU : 1
Evicting from L2C with CPU 0

Evicting from L2C with CPU 0

Evicting from LLC with CPU 0

It's own block 15 is being evicted 

Different Cores!
Evicting CPU : 1   Block CPU : 0
Spy trying to Evict from 0
Hence it doesn't evict!

Checking the next block with LRU 14

Same Core!
It's own block 14 is being evicted 

Same Core!
It's own block 15 is being evicted 

Different Cores!
Evicting CPU : 1   Block CPU : 0
Spy trying to Evict from 0
Hence it doesn't evict!

Checking the next block with LRU 14

Different Cores!
Evicting CPU : 1   Block CPU : 0
Spy trying to Evict from 0
Hence it doesn't evict!

Checking the next block with LRU 13

Different Cores!
Evicting CPU : 1   Block CPU : 0
Spy trying to Evict from 0
Hence it doesn't evict!

Checking the next block with LRU 12

Same Core!
It's own block 12 is being evicted 

Same Core!
It's own block 15 is being evicted 

Same Core!
It's own block 15 is being evicted 

Different Cores!
Evicting CPU : 1   Block CPU : 0
Spy trying to Evict from 0
Hence it doesn't evict!

Checking the next block with LRU 14

Different Cores!
Evicting CPU : 1   Block CPU : 0
Spy trying to Evict from 0
Hence it doesn't evict!

Checking the next block with LRU 13

Different Cores!
Evicting CPU : 1   Block CPU : 0
Spy trying to Evict from 0
Hence it doesn't evict!

Checking the next block with LRU 12

Different Cores!
Evicting CPU : 1   Block CPU : 0
Spy trying to Evict from 0
Hence it doesn't evict!

Checking the next block with LRU 11

Different Cores!
Evicting CPU : 1   Block CPU : 0
Spy trying to Evict from 0
Hence it doesn't evict!

Checking the next block with LRU 10

Randomly Evicting  11

Same Core!
It's own block 15 is being evicted 

Same Core!
It's own block 15 is being evicted 

Same Core!
It's own block 15 is being evicted 

Same Core!
It's own block 15 is being evicted 

Different Cores!
Evicting CPU : 1   Block CPU : 0
Spy trying to Evict from 0
Hence it doesn't evict!

Checking the next block with LRU 14

Same Core!
It's own block 14 is being evicted 

Different Cores!
Evicting CPU : 1   Block CPU : 0
Spy trying to Evict from 0
Hence it doesn't evict!

Checking the next block with LRU 14

Same Core!
It's own block 14 is being evicted 

Different Cores!
Evicting CPU : 0   Block CPU : 1
Evicting from L2C with CPU 0

Evicting from L2C with CPU 0

Evicting from LLC with CPU 0

It's own block 15 is being evicted 

Different Cores!
Evicting CPU : 0   Block CPU : 1
Evicting from L2C with CPU 0

Evicting from L2C with CPU 0

Evicting from LLC with CPU 0

It's own block 15 is being evicted 

Different Cores!
Evicting CPU : 1   Block CPU : 0
Spy trying to Evict from 0
Hence it doesn't evict!

Checking the next block with LRU 14

Different Cores!
Evicting CPU : 1   Block CPU : 0
Spy trying to Evict from 0
Hence it doesn't evict!

Checking the next block with LRU 13

Same Core!
It's own block 13 is being evicted 

Different Cores!
Evicting CPU : 0   Block CPU : 1
Evicting from L2C with CPU 0

Evicting from L2C with CPU 0

Evicting from LLC with CPU 0

It's own block 15 is being evicted 

Different Cores!
Evicting CPU : 1   Block CPU : 0
Spy trying to Evict from 0
Hence it doesn't evict!

Checking the next block with LRU 14

Different Cores!
Evicting CPU : 1   Block CPU : 0
Spy trying to Evict from 0
Hence it doesn't evict!

Checking the next block with LRU 13

Different Cores!
Evicting CPU : 1   Block CPU : 0
Spy trying to Evict from 0
Hence it doesn't evict!

Checking the next block with LRU 12

Same Core!
It's own block 12 is being evicted 

Same Core!
It's own block 15 is being evicted 

Same Core!
It's own block 15 is being evicted 

Same Core!
It's own block 15 is being evicted 

Different Cores!
Evicting CPU : 1   Block CPU : 0
Spy trying to Evict from 0
Hence it doesn't evict!

Checking the next block with LRU 14

Different Cores!
Evicting CPU : 1   Block CPU : 0
Spy trying to Evict from 0
Hence it doesn't evict!

Checking the next block with LRU 13

Same Core!
It's own block 13 is being evicted 

Same Core!
It's own block 15 is being evicted 

Same Core!
It's own block 15 is being evicted 

Same Core!
It's own block 15 is being evicted 

Same Core!
It's own block 15 is being evicted 

Different Cores!
Evicting CPU : 1   Block CPU : 0
Spy trying to Evict from 0
Hence it doesn't evict!

Checking the next block with LRU 14

Same Core!
It's own block 14 is being evicted 

Different Cores!
Evicting CPU : 1   Block CPU : 0
Spy trying to Evict from 0
Hence it doesn't evict!

Checking the next block with LRU 14

Same Core!
It's own block 14 is being evicted 

Different Cores!
Evicting CPU : 1   Block CPU : 0
Spy trying to Evict from 0
Hence it doesn't evict!

Checking the next block with LRU 14

Different Cores!
Evicting CPU : 1   Block CPU : 0
Spy trying to Evict from 0
Hence it doesn't evict!

Checking the next block with LRU 13

Same Core!
It's own block 13 is being evicted 

Different Cores!
Evicting CPU : 1   Block CPU : 0
Spy trying to Evict from 0
Hence it doesn't evict!

Checking the next block with LRU 14

Same Core!
It's own block 14 is being evicted 

Same Core!
It's own block 15 is being evicted 

Different Cores!
Evicting CPU : 0   Block CPU : 1
Evicting from L2C with CPU 0

Evicting from L2C with CPU 0

Evicting from LLC with CPU 0

It's own block 15 is being evicted 

Same Core!
It's own block 15 is being evicted 

Same Core!
It's own block 15 is being evicted 

Same Core!
It's own block 15 is being evicted 

Different Cores!
Evicting CPU : 1   Block CPU : 0
Spy trying to Evict from 0
Hence it doesn't evict!

Checking the next block with LRU 14

Same Core!
It's own block 14 is being evicted 

Same Core!
It's own block 15 is being evicted 

Different Cores!
Evicting CPU : 0   Block CPU : 1
Evicting from L2C with CPU 0

Evicting from L2C with CPU 0

Evicting from LLC with CPU 0

It's own block 15 is being evicted 

Different Cores!
Evicting CPU : 1   Block CPU : 0
Spy trying to Evict from 0
Hence it doesn't evict!

Checking the next block with LRU 14

Same Core!
It's own block 14 is being evicted 

Same Core!
It's own block 15 is being evicted 

Same Core!
It's own block 15 is being evicted 

Different Cores!
Evicting CPU : 0   Block CPU : 1
Evicting from L2C with CPU 0

Evicting from L2C with CPU 0

Evicting from LLC with CPU 0

It's own block 15 is being evicted 

Same Core!
It's own block 15 is being evicted 

Different Cores!
Evicting CPU : 0   Block CPU : 1
Evicting from L2C with CPU 0

Evicting from L2C with CPU 0

Evicting from LLC with CPU 0

It's own block 15 is being evicted 

Same Core!
It's own block 15 is being evicted 

Same Core!
It's own block 15 is being evicted 

Different Cores!
Evicting CPU : 1   Block CPU : 0
Spy trying to Evict from 0
Hence it doesn't evict!

Checking the next block with LRU 14

Different Cores!
Evicting CPU : 1   Block CPU : 0
Spy trying to Evict from 0
Hence it doesn't evict!

Checking the next block with LRU 13

Different Cores!
Evicting CPU : 1   Block CPU : 0
Spy trying to Evict from 0
Hence it doesn't evict!

Checking the next block with LRU 12

Different Cores!
Evicting CPU : 1   Block CPU : 0
Spy trying to Evict from 0
Hence it doesn't evict!

Checking the next block with LRU 11

Different Cores!
Evicting CPU : 1   Block CPU : 0
Spy trying to Evict from 0
Hence it doesn't evict!

Checking the next block with LRU 10

Randomly Evicting  11

Same Core!
It's own block 15 is being evicted 

Different Cores!
Evicting CPU : 0   Block CPU : 1
Evicting from L2C with CPU 0

Evicting from L2C with CPU 0

Evicting from LLC with CPU 0

It's own block 15 is being evicted 

Same Core!
It's own block 15 is being evicted 

Same Core!
It's own block 15 is being evicted 

Different Cores!
Evicting CPU : 0   Block CPU : 1
Evicting from L2C with CPU 0

Evicting from L2C with CPU 0

Evicting from LLC with CPU 0

It's own block 15 is being evicted 

Same Core!
It's own block 15 is being evicted 

Different Cores!
Evicting CPU : 1   Block CPU : 0
Spy trying to Evict from 0
Hence it doesn't evict!

Checking the next block with LRU 14

Different Cores!
Evicting CPU : 1   Block CPU : 0
Spy trying to Evict from 0
Hence it doesn't evict!

Checking the next block with LRU 13

Different Cores!
Evicting CPU : 1   Block CPU : 0
Spy trying to Evict from 0
Hence it doesn't evict!

Checking the next block with LRU 12

Same Core!
It's own block 12 is being evicted 

Same Core!
It's own block 15 is being evicted 

Same Core!
It's own block 15 is being evicted 

Same Core!
It's own block 15 is being evicted 

Finished CPU 1 instructions: 8000001 cycles: 9841152 cumulative IPC: 0.812913 (Simulation time: 0 hr 0 min 37 sec) 
Finished CPU 0 instructions: 8000000 cycles: 9841468 cumulative IPC: 0.812887 (Simulation time: 0 hr 0 min 37 sec) 

CPU 0 Branch Prediction Accuracy: 91.0445% MPKI: 15.0003

CPU 1 Branch Prediction Accuracy: 91.0439% MPKI: 15.0015

ChampSim completed all CPUs

Total Simulation Statistics (not including warmup)

CPU 0 cumulative IPC: 0.812887 instructions: 8000000 cycles: 9841468
L1D TOTAL     ACCESS:    1885979  HIT:    1805543  MISS:      80436
L1D LOAD      ACCESS:    1401041  HIT:    1341173  MISS:      59868
L1D RFO       ACCESS:     484938  HIT:     464370  MISS:      20568
L1D PREFETCH  ACCESS:          0  HIT:          0  MISS:          0
L1D WRITEBACK ACCESS:          0  HIT:          0  MISS:          0
L1I TOTAL     ACCESS:    1637197  HIT:    1637196  MISS:          1
L1I LOAD      ACCESS:    1637197  HIT:    1637196  MISS:          1
L1I RFO       ACCESS:          0  HIT:          0  MISS:          0
L1I PREFETCH  ACCESS:          0  HIT:          0  MISS:          0
L1I WRITEBACK ACCESS:          0  HIT:          0  MISS:          0
L2C TOTAL     ACCESS:     104768  HIT:      54561  MISS:      50207
L2C LOAD      ACCESS:      59869  HIT:      26238  MISS:      33631
L2C RFO       ACCESS:      20567  HIT:       3993  MISS:      16574
L2C PREFETCH  ACCESS:          0  HIT:          0  MISS:          0
L2C WRITEBACK ACCESS:      24332  HIT:      24330  MISS:          2
LLC TOTAL     ACCESS:      70797  HIT:      51687  MISS:      19110
LLC LOAD      ACCESS:      33630  HIT:      21941  MISS:      11689
LLC RFO       ACCESS:      16574  HIT:       9153  MISS:       7421
LLC PREFETCH  ACCESS:          0  HIT:          0  MISS:          0
LLC WRITEBACK ACCESS:      20593  HIT:      20593  MISS:          0

CPU 1 cumulative IPC: 0.812907 instructions: 8000196 cycles: 9841468
L1D TOTAL     ACCESS:    1886209  HIT:    1805771  MISS:      80438
L1D LOAD      ACCESS:    1401086  HIT:    1341217  MISS:      59869
L1D RFO       ACCESS:     485123  HIT:     464554  MISS:      20569
L1D PREFETCH  ACCESS:          0  HIT:          0  MISS:          0
L1D WRITEBACK ACCESS:          0  HIT:          0  MISS:          0
L1I TOTAL     ACCESS:    1637397  HIT:    1637396  MISS:          1
L1I LOAD      ACCESS:    1637397  HIT:    1637396  MISS:          1
L1I RFO       ACCESS:          0  HIT:          0  MISS:          0
L1I PREFETCH  ACCESS:          0  HIT:          0  MISS:          0
L1I WRITEBACK ACCESS:          0  HIT:          0  MISS:          0
L2C TOTAL     ACCESS:     104771  HIT:      54338  MISS:      50433
L2C LOAD      ACCESS:      59870  HIT:      26094  MISS:      33776
L2C RFO       ACCESS:      20568  HIT:       3925  MISS:      16643
L2C PREFETCH  ACCESS:          0  HIT:          0  MISS:          0
L2C WRITEBACK ACCESS:      24333  HIT:      24319  MISS:         14
LLC TOTAL     ACCESS:      70951  HIT:      51772  MISS:      19179
LLC LOAD      ACCESS:      33776  HIT:      22046  MISS:      11730
LLC RFO       ACCESS:      16643  HIT:       9194  MISS:       7449
LLC PREFETCH  ACCESS:          0  HIT:          0  MISS:          0
LLC WRITEBACK ACCESS:      20532  HIT:      20532  MISS:          0

Region of Interest Statistics

CPU 0 cumulative IPC: 0.812887 instructions: 8000000 cycles: 9841468
L1D TOTAL     ACCESS:    1885979  HIT:    1805543  MISS:      80436
L1D LOAD      ACCESS:    1401041  HIT:    1341173  MISS:      59868
L1D RFO       ACCESS:     484938  HIT:     464370  MISS:      20568
L1D PREFETCH  ACCESS:          0  HIT:          0  MISS:          0
L1D WRITEBACK ACCESS:          0  HIT:          0  MISS:          0
L1D PREFETCH  REQUESTED:          0  ISSUED:          0  USEFUL:          0  USELESS:          0
L1D BACK HITS: 0
L1D TOTAL REPL: 0
L1I TOTAL     ACCESS:    1637197  HIT:    1637196  MISS:          1
L1I LOAD      ACCESS:    1637197  HIT:    1637196  MISS:          1
L1I RFO       ACCESS:          0  HIT:          0  MISS:          0
L1I PREFETCH  ACCESS:          0  HIT:          0  MISS:          0
L1I WRITEBACK ACCESS:          0  HIT:          0  MISS:          0
L1I PREFETCH  REQUESTED:          0  ISSUED:          0  USEFUL:          0  USELESS:          0
L1I BACK HITS: 0
L1I TOTAL REPL: 0
L2C TOTAL     ACCESS:     104768  HIT:      54561  MISS:      50207
L2C LOAD      ACCESS:      59869  HIT:      26238  MISS:      33631
L2C RFO       ACCESS:      20567  HIT:       3993  MISS:      16574
L2C PREFETCH  ACCESS:          0  HIT:          0  MISS:          0
L2C WRITEBACK ACCESS:      24332  HIT:      24330  MISS:          2
L2C PREFETCH  REQUESTED:          0  ISSUED:          0  USEFUL:          0  USELESS:          0
L2C BACK HITS: 0
L2C TOTAL REPL: 0
LLC TOTAL     ACCESS:      70797  HIT:      51687  MISS:      19110
LLC LOAD      ACCESS:      33630  HIT:      21941  MISS:      11689
LLC RFO       ACCESS:      16574  HIT:       9153  MISS:       7421
LLC PREFETCH  ACCESS:          0  HIT:          0  MISS:          0
LLC WRITEBACK ACCESS:      20593  HIT:      20593  MISS:          0
LLC PREFETCH  REQUESTED:          0  ISSUED:          0  USEFUL:          0  USELESS:          0
LLC BACK HITS: 0
LLC TOTAL REPL: 0
Major fault: 0 Minor fault: 741

CPU 1 cumulative IPC: 0.812913 instructions: 8000001 cycles: 9841152
L1D TOTAL     ACCESS:    1886159  HIT:    1805721  MISS:      80438
L1D LOAD      ACCESS:    1401050  HIT:    1341181  MISS:      59869
L1D RFO       ACCESS:     485109  HIT:     464540  MISS:      20569
L1D PREFETCH  ACCESS:          0  HIT:          0  MISS:          0
L1D WRITEBACK ACCESS:          0  HIT:          0  MISS:          0
L1D PREFETCH  REQUESTED:          0  ISSUED:          0  USEFUL:          0  USELESS:          0
L1D BACK HITS: 0
L1D TOTAL REPL: 0
L1I TOTAL     ACCESS:    1637364  HIT:    1637363  MISS:          1
L1I LOAD      ACCESS:    1637364  HIT:    1637363  MISS:          1
L1I RFO       ACCESS:          0  HIT:          0  MISS:          0
L1I PREFETCH  ACCESS:          0  HIT:          0  MISS:          0
L1I WRITEBACK ACCESS:          0  HIT:          0  MISS:          0
L1I PREFETCH  REQUESTED:          0  ISSUED:          0  USEFUL:          0  USELESS:          0
L1I BACK HITS: 0
L1I TOTAL REPL: 0
L2C TOTAL     ACCESS:     104771  HIT:      54338  MISS:      50433
L2C LOAD      ACCESS:      59870  HIT:      26094  MISS:      33776
L2C RFO       ACCESS:      20568  HIT:       3925  MISS:      16643
L2C PREFETCH  ACCESS:          0  HIT:          0  MISS:          0
L2C WRITEBACK ACCESS:      24333  HIT:      24319  MISS:         14
L2C PREFETCH  REQUESTED:          0  ISSUED:          0  USEFUL:          0  USELESS:          0
L2C BACK HITS: 0
L2C TOTAL REPL: 0
LLC TOTAL     ACCESS:      70951  HIT:      51772  MISS:      19179
LLC LOAD      ACCESS:      33776  HIT:      22046  MISS:      11730
LLC RFO       ACCESS:      16643  HIT:       9194  MISS:       7449
LLC PREFETCH  ACCESS:          0  HIT:          0  MISS:          0
LLC WRITEBACK ACCESS:      20532  HIT:      20532  MISS:          0
LLC PREFETCH  REQUESTED:          0  ISSUED:          0  USEFUL:          0  USELESS:          0
LLC BACK HITS: 0
LLC TOTAL REPL: 0
Major fault: 0 Minor fault: 741

DRAM Statistics
 CHANNEL 0
 RQ ROW_BUFFER_HIT:       9988  ROW_BUFFER_MISS:       8718
 DBUS_CONGESTED:       8506
 WQ ROW_BUFFER_HIT:         30  ROW_BUFFER_MISS:        153  FULL:          0

 CHANNEL 1
 RQ ROW_BUFFER_HIT:      10776  ROW_BUFFER_MISS:       8771
 DBUS_CONGESTED:       8506
 WQ ROW_BUFFER_HIT:         46  ROW_BUFFER_MISS:        298  FULL:          0

 AVG_CONGESTED_CYCLE: 11
