
*** ChampSim Multicore Out-of-Order Simulator ***

Warmup Instructions: 1000000
Simulation Instructions: 8000000
Number of CPUs: 2
LLC sets: 4096
LLC ways: 16
Off-chip DRAM Size: 8192 MB Channels: 2 Width: 64-bit Data Rate: 1600 MT/s

CPU 0 runs /home/ubuntu/workspace/ChampSim-inclusive/traces/bzip2_183B.trace.gz
CPU 1 runs /home/ubuntu/workspace/ChampSim-inclusive/traces/bzip2_183B.trace.gz
CPU 0 Bimodal branch predictor
CPU 1 Bimodal branch predictor

Warmup complete CPU 0 instructions: 1000222 cycles: 554763 (Simulation time: 0 hr 0 min 3 sec) 
Warmup complete CPU 1 instructions: 1000002 cycles: 554763 (Simulation time: 0 hr 0 min 3 sec) 

Block's CPU : 0    Evicting CPU : 1    Different Cores!   SPYYY   j : 15
Cross Core Eviction!   1
Block's CPU : 0    Evicting CPU : 1    Different Cores!   SPYYY   j : 14
Cross Core Eviction!   2
Block's CPU : 1    Evicting CPU : 1    Same Core!    SAMEEE   j : 13
Evicting from 1
Evicting from 1
Evicting from 1
Evicting from 1
Block's CPU : 1    Evicting CPU : 0    Different Cores!   SPYYY   j : 15
Cross Core Eviction!   3
Block's CPU : 0    Evicting CPU : 0    Same Core!    SAMEEE   j : 14
Evicting from 0
Evicting from 0
Evicting from 0
Evicting from 0
Block's CPU : 0    Evicting CPU : 0    Same Core!    SAMEEE   j : 15
Evicting from 0
Evicting from 0
Evicting from 0
Evicting from 0
Block's CPU : 1    Evicting CPU : 1    Same Core!    SAMEEE   j : 15
Evicting from 1
Evicting from 1
Evicting from 1
Evicting from 1
Block's CPU : 0    Evicting CPU : 0    Same Core!    SAMEEE   j : 15
Evicting from 0
Evicting from 0
Evicting from 0
Evicting from 0
Block's CPU : 1    Evicting CPU : 0    Different Cores!   SPYYY   j : 15
Cross Core Eviction!   4
Block's CPU : 0    Evicting CPU : 0    Same Core!    SAMEEE   j : 14
Evicting from 0
Evicting from 0
Evicting from 0
Evicting from 0
Block's CPU : 0    Evicting CPU : 0    Same Core!    SAMEEE   j : 15
Evicting from 0
Evicting from 0
Evicting from 0
Evicting from 0
Block's CPU : 0    Evicting CPU : 1    Different Cores!   SPYYY   j : 15
Cross Core Eviction!   5
Block's CPU : 0    Evicting CPU : 1    Different Cores!   SPYYY   j : 14
Cross Core Eviction!   6
Block's CPU : 1    Evicting CPU : 1    Same Core!    SAMEEE   j : 13
Evicting from 1
Evicting from 1
Evicting from 1
Evicting from 1
Block's CPU : 0    Evicting CPU : 1    Different Cores!   SPYYY   j : 15
Cross Core Eviction!   7
Block's CPU : 1    Evicting CPU : 1    Same Core!    SAMEEE   j : 14
Evicting from 1
Evicting from 1
Evicting from 1
Evicting from 1
Block's CPU : 0    Evicting CPU : 1    Different Cores!   SPYYY   j : 15
Cross Core Eviction!   8
Block's CPU : 1    Evicting CPU : 1    Same Core!    SAMEEE   j : 14
Evicting from 1
Evicting from 1
Evicting from 1
Evicting from 1
Block's CPU : 0    Evicting CPU : 0    Same Core!    SAMEEE   j : 15
Evicting from 0
Evicting from 0
Evicting from 0
Evicting from 0
Block's CPU : 1    Evicting CPU : 1    Same Core!    SAMEEE   j : 15
Evicting from 1
Evicting from 1
Evicting from 1
Evicting from 1
Block's CPU : 0    Evicting CPU : 1    Different Cores!   SPYYY   j : 15
Cross Core Eviction!   9
Block's CPU : 1    Evicting CPU : 1    Same Core!    SAMEEE   j : 14
Evicting from 1
Evicting from 1
Evicting from 1
Evicting from 1
Block's CPU : 0    Evicting CPU : 0    Same Core!    SAMEEE   j : 15
Evicting from 0
Evicting from 0
Evicting from 0
Evicting from 0
Block's CPU : 1    Evicting CPU : 1    Same Core!    SAMEEE   j : 15
Evicting from 1
Evicting from 1
Evicting from 1
Evicting from 1
Block's CPU : 1    Evicting CPU : 1    Same Core!    SAMEEE   j : 15
Evicting from 1
Evicting from 1
Evicting from 1
Evicting from 1
Block's CPU : 0    Evicting CPU : 1    Different Cores!   SPYYY   j : 15
Cross Core Eviction!   10
Block's CPU : 1    Evicting CPU : 1    Same Core!    SAMEEE   j : 14
Evicting from 1
Evicting from 1
Evicting from 1
Evicting from 1
Block's CPU : 1    Evicting CPU : 0    Different Cores!   SPYYY   j : 15
Cross Core Eviction!   11
Block's CPU : 0    Evicting CPU : 0    Same Core!    SAMEEE   j : 14
Evicting from 0
Evicting from 0
Evicting from 0
Evicting from 0
Block's CPU : 1    Evicting CPU : 1    Same Core!    SAMEEE   j : 15
Evicting from 1
Evicting from 1
Evicting from 1
Evicting from 1
Block's CPU : 1    Evicting CPU : 0    Different Cores!   SPYYY   j : 15
Cross Core Eviction!   12
Block's CPU : 1    Evicting CPU : 0    Different Cores!   SPYYY   j : 14
Cross Core Eviction!   13
Block's CPU : 1    Evicting CPU : 0    Different Cores!   SPYYY   j : 13
Cross Core Eviction!   14
Block's CPU : 0    Evicting CPU : 0    Same Core!    SAMEEE   j : 12
Evicting from 0
Evicting from 0
Evicting from 0
Evicting from 0
Block's CPU : 0    Evicting CPU : 0    Same Core!    SAMEEE   j : 15
Evicting from 0
Evicting from 0
Evicting from 0
Evicting from 0
Block's CPU : 0    Evicting CPU : 1    Different Cores!   SPYYY   j : 15
Cross Core Eviction!   15
Block's CPU : 1    Evicting CPU : 1    Same Core!    SAMEEE   j : 14
Evicting from 1
Evicting from 1
Evicting from 1
Evicting from 1
Block's CPU : 1    Evicting CPU : 1    Same Core!    SAMEEE   j : 15
Evicting from 1
Evicting from 1
Evicting from 1
Evicting from 1
Block's CPU : 1    Evicting CPU : 0    Different Cores!   SPYYY   j : 15
Cross Core Eviction!   16
Block's CPU : 1    Evicting CPU : 0    Different Cores!   SPYYY   j : 14
Cross Core Eviction!   17
Block's CPU : 0    Evicting CPU : 0    Same Core!    SAMEEE   j : 13
Evicting from 0
Evicting from 0
Evicting from 0
Evicting from 0
Block's CPU : 1    Evicting CPU : 1    Same Core!    SAMEEE   j : 15
Evicting from 1
Evicting from 1
Evicting from 1
Evicting from 1
Block's CPU : 0    Evicting CPU : 1    Different Cores!   SPYYY   j : 15
Cross Core Eviction!   18
Block's CPU : 1    Evicting CPU : 1    Same Core!    SAMEEE   j : 14
Evicting from 1
Evicting from 1
Evicting from 1
Evicting from 1
Block's CPU : 0    Evicting CPU : 1    Different Cores!   SPYYY   j : 15
Cross Core Eviction!   19
Block's CPU : 1    Evicting CPU : 1    Same Core!    SAMEEE   j : 14
Evicting from 1
Evicting from 1
Evicting from 1
Evicting from 1
Block's CPU : 1    Evicting CPU : 1    Same Core!    SAMEEE   j : 15
Evicting from 1
Evicting from 1
Evicting from 1
Evicting from 1
Block's CPU : 0    Evicting CPU : 1    Different Cores!   SPYYY   j : 15
Cross Core Eviction!   20
Block's CPU : 1    Evicting CPU : 1    Same Core!    SAMEEE   j : 14
Evicting from 1
Evicting from 1
Evicting from 1
Evicting from 1
Block's CPU : 1    Evicting CPU : 1    Same Core!    SAMEEE   j : 15
Evicting from 1
Evicting from 1
Evicting from 1
Evicting from 1
Block's CPU : 0    Evicting CPU : 1    Different Cores!   SPYYY   j : 15
Cross Core Eviction!   21
Block's CPU : 0    Evicting CPU : 1    Different Cores!   SPYYY   j : 14
Cross Core Eviction!   22
Block's CPU : 0    Evicting CPU : 1    Different Cores!   SPYYY   j : 13
Cross Core Eviction!   23
Block's CPU : 1    Evicting CPU : 1    Same Core!    SAMEEE   j : 12
Evicting from 1
Evicting from 1
Evicting from 1
Evicting from 1
Block's CPU : 1    Evicting CPU : 0    Different Cores!   SPYYY   j : 15
Cross Core Eviction!   24
Block's CPU : 1    Evicting CPU : 0    Different Cores!   SPYYY   j : 14
Cross Core Eviction!   25
Block's CPU : 0    Evicting CPU : 0    Same Core!    SAMEEE   j : 13
Evicting from 0
Evicting from 0
Evicting from 0
Evicting from 0
Block's CPU : 1    Evicting CPU : 1    Same Core!    SAMEEE   j : 15
Evicting from 1
Evicting from 1
Evicting from 1
Evicting from 1
Block's CPU : 0    Evicting CPU : 0    Same Core!    SAMEEE   j : 15
Evicting from 0
Evicting from 0
Evicting from 0
Evicting from 0
Block's CPU : 0    Evicting CPU : 0    Same Core!    SAMEEE   j : 15
Evicting from 0
Evicting from 0
Evicting from 0
Evicting from 0
Block's CPU : 1    Evicting CPU : 0    Different Cores!   SPYYY   j : 15
Cross Core Eviction!   26
Block's CPU : 1    Evicting CPU : 0    Different Cores!   SPYYY   j : 14
Cross Core Eviction!   27
Block's CPU : 1    Evicting CPU : 0    Different Cores!   SPYYY   j : 13
Cross Core Eviction!   28
Block's CPU : 1    Evicting CPU : 0    Different Cores!   SPYYY   j : 12
Cross Core Eviction!   29
Breaking Point!    j : 11 Has a LRU : 12
Evicting from 1
Evicting from 1
Evicting from 1
Evicting from 1
Block's CPU : 1    Evicting CPU : 0    Different Cores!   SPYYY   j : 15
Cross Core Eviction!   30
Block's CPU : 1    Evicting CPU : 0    Different Cores!   SPYYY   j : 14
Cross Core Eviction!   31
Block's CPU : 1    Evicting CPU : 0    Different Cores!   SPYYY   j : 13
Cross Core Eviction!   32
Block's CPU : 0    Evicting CPU : 0    Same Core!    SAMEEE   j : 12
Evicting from 0
Evicting from 0
Evicting from 0
Evicting from 0
Block's CPU : 0    Evicting CPU : 1    Different Cores!   SPYYY   j : 15
Cross Core Eviction!   33
Block's CPU : 0    Evicting CPU : 1    Different Cores!   SPYYY   j : 14
Cross Core Eviction!   34
Block's CPU : 0    Evicting CPU : 1    Different Cores!   SPYYY   j : 13
Cross Core Eviction!   35
Block's CPU : 1    Evicting CPU : 1    Same Core!    SAMEEE   j : 12
Evicting from 1
Evicting from 1
Evicting from 1
Evicting from 1
Block's CPU : 1    Evicting CPU : 1    Same Core!    SAMEEE   j : 15
Evicting from 1
Evicting from 1
Evicting from 1
Evicting from 1
Block's CPU : 1    Evicting CPU : 1    Same Core!    SAMEEE   j : 15
Evicting from 1
Evicting from 1
Evicting from 1
Evicting from 1
Block's CPU : 1    Evicting CPU : 1    Same Core!    SAMEEE   j : 15
Evicting from 1
Evicting from 1
Evicting from 1
Evicting from 1
Block's CPU : 1    Evicting CPU : 0    Different Cores!   SPYYY   j : 15
Cross Core Eviction!   36
Block's CPU : 1    Evicting CPU : 0    Different Cores!   SPYYY   j : 14
Cross Core Eviction!   37
Block's CPU : 1    Evicting CPU : 0    Different Cores!   SPYYY   j : 13
Cross Core Eviction!   38
Block's CPU : 1    Evicting CPU : 0    Different Cores!   SPYYY   j : 12
Cross Core Eviction!   39
Breaking Point!    j : 11 Has a LRU : 12
Evicting from 1
Evicting from 1
Evicting from 1
Evicting from 1
Block's CPU : 0    Evicting CPU : 0    Same Core!    SAMEEE   j : 15
Evicting from 0
Evicting from 0
Evicting from 0
Evicting from 0
Block's CPU : 0    Evicting CPU : 0    Same Core!    SAMEEE   j : 15
Evicting from 0
Evicting from 0
Evicting from 0
Evicting from 0
Block's CPU : 0    Evicting CPU : 0    Same Core!    SAMEEE   j : 15
Evicting from 0
Evicting from 0
Evicting from 0
Evicting from 0
Block's CPU : 0    Evicting CPU : 1    Different Cores!   SPYYY   j : 15
Cross Core Eviction!   40
Block's CPU : 1    Evicting CPU : 1    Same Core!    SAMEEE   j : 14
Evicting from 1
Evicting from 1
Evicting from 1
Evicting from 1
Block's CPU : 1    Evicting CPU : 1    Same Core!    SAMEEE   j : 15
Evicting from 1
Evicting from 1
Evicting from 1
Evicting from 1
Block's CPU : 1    Evicting CPU : 0    Different Cores!   SPYYY   j : 15
Cross Core Eviction!   41
Block's CPU : 1    Evicting CPU : 0    Different Cores!   SPYYY   j : 14
Cross Core Eviction!   42
Block's CPU : 1    Evicting CPU : 0    Different Cores!   SPYYY   j : 13
Cross Core Eviction!   43
Block's CPU : 0    Evicting CPU : 0    Same Core!    SAMEEE   j : 12
Evicting from 0
Evicting from 0
Evicting from 0
Evicting from 0
Block's CPU : 0    Evicting CPU : 0    Same Core!    SAMEEE   j : 15
Evicting from 0
Evicting from 0
Evicting from 0
Evicting from 0
Block's CPU : 1    Evicting CPU : 0    Different Cores!   SPYYY   j : 15
Cross Core Eviction!   44
Block's CPU : 0    Evicting CPU : 0    Same Core!    SAMEEE   j : 14
Evicting from 0
Evicting from 0
Evicting from 0
Evicting from 0
Block's CPU : 1    Evicting CPU : 0    Different Cores!   SPYYY   j : 15
Cross Core Eviction!   45
Block's CPU : 1    Evicting CPU : 0    Different Cores!   SPYYY   j : 14
Cross Core Eviction!   46
Block's CPU : 0    Evicting CPU : 0    Same Core!    SAMEEE   j : 13
Evicting from 0
Evicting from 0
Evicting from 0
Evicting from 0
Block's CPU : 1    Evicting CPU : 0    Different Cores!   SPYYY   j : 15
Cross Core Eviction!   47
Block's CPU : 1    Evicting CPU : 0    Different Cores!   SPYYY   j : 14
Cross Core Eviction!   48
Block's CPU : 1    Evicting CPU : 0    Different Cores!   SPYYY   j : 13
Cross Core Eviction!   49
Block's CPU : 0    Evicting CPU : 0    Same Core!    SAMEEE   j : 12
Evicting from 0
Evicting from 0
Evicting from 0
Evicting from 0
Block's CPU : 0    Evicting CPU : 0    Same Core!    SAMEEE   j : 15
Evicting from 0
Evicting from 0
Evicting from 0
Evicting from 0
Block's CPU : 1    Evicting CPU : 0    Different Cores!   SPYYY   j : 15
Cross Core Eviction!   50
Block's CPU : 1    Evicting CPU : 0    Different Cores!   SPYYY   j : 14
Cross Core Eviction!   51
Block's CPU : 0    Evicting CPU : 0    Same Core!    SAMEEE   j : 13
Evicting from 0
Evicting from 0
Evicting from 0
Evicting from 0
Block's CPU : 1    Evicting CPU : 0    Different Cores!   SPYYY   j : 15
Cross Core Eviction!   52
Block's CPU : 1    Evicting CPU : 0    Different Cores!   SPYYY   j : 14
Cross Core Eviction!   53
Block's CPU : 1    Evicting CPU : 0    Different Cores!   SPYYY   j : 13
Cross Core Eviction!   54
Block's CPU : 0    Evicting CPU : 0    Same Core!    SAMEEE   j : 12
Evicting from 0
Evicting from 0
Evicting from 0
Evicting from 0
Block's CPU : 1    Evicting CPU : 0    Different Cores!   SPYYY   j : 15
Cross Core Eviction!   55
Block's CPU : 1    Evicting CPU : 0    Different Cores!   SPYYY   j : 14
Cross Core Eviction!   56
Block's CPU : 1    Evicting CPU : 0    Different Cores!   SPYYY   j : 13
Cross Core Eviction!   57
Block's CPU : 1    Evicting CPU : 0    Different Cores!   SPYYY   j : 12
Cross Core Eviction!   58
Breaking Point!    j : 11 Has a LRU : 12
Evicting from 1
Evicting from 1
Evicting from 1
Evicting from 1
Block's CPU : 0    Evicting CPU : 0    Same Core!    SAMEEE   j : 15
Evicting from 0
Evicting from 0
Evicting from 0
Evicting from 0
Block's CPU : 1    Evicting CPU : 1    Same Core!    SAMEEE   j : 15
Evicting from 1
Evicting from 1
Evicting from 1
Evicting from 1
Block's CPU : 1    Evicting CPU : 1    Same Core!    SAMEEE   j : 15
Evicting from 1
Evicting from 1
Evicting from 1
Evicting from 1
Block's CPU : 0    Evicting CPU : 1    Different Cores!   SPYYY   j : 15
Cross Core Eviction!   59
Block's CPU : 0    Evicting CPU : 1    Different Cores!   SPYYY   j : 14
Cross Core Eviction!   60
Block's CPU : 1    Evicting CPU : 1    Same Core!    SAMEEE   j : 13
Evicting from 1
Evicting from 1
Evicting from 1
Evicting from 1
Block's CPU : 0    Evicting CPU : 0    Same Core!    SAMEEE   j : 15
Evicting from 0
Evicting from 0
Evicting from 0
Evicting from 0
Block's CPU : 1    Evicting CPU : 0    Different Cores!   SPYYY   j : 15
Cross Core Eviction!   61
Block's CPU : 0    Evicting CPU : 0    Same Core!    SAMEEE   j : 14
Evicting from 0
Evicting from 0
Evicting from 0
Evicting from 0
Block's CPU : 0    Evicting CPU : 0    Same Core!    SAMEEE   j : 15
Evicting from 0
Evicting from 0
Evicting from 0
Evicting from 0
Block's CPU : 0    Evicting CPU : 1    Different Cores!   SPYYY   j : 15
Cross Core Eviction!   62
Block's CPU : 1    Evicting CPU : 1    Same Core!    SAMEEE   j : 14
Evicting from 1
Evicting from 1
Evicting from 1
Evicting from 1
Block's CPU : 1    Evicting CPU : 1    Same Core!    SAMEEE   j : 15
Evicting from 1
Evicting from 1
Evicting from 1
Evicting from 1
Block's CPU : 1    Evicting CPU : 1    Same Core!    SAMEEE   j : 15
Evicting from 1
Evicting from 1
Evicting from 1
Evicting from 1
Block's CPU : 1    Evicting CPU : 1    Same Core!    SAMEEE   j : 15
Evicting from 1
Evicting from 1
Evicting from 1
Evicting from 1
Block's CPU : 1    Evicting CPU : 1    Same Core!    SAMEEE   j : 15
Evicting from 1
Evicting from 1
Evicting from 1
Evicting from 1
Block's CPU : 0    Evicting CPU : 0    Same Core!    SAMEEE   j : 15
Evicting from 0
Evicting from 0
Evicting from 0
Evicting from 0
Block's CPU : 1    Evicting CPU : 1    Same Core!    SAMEEE   j : 15
Evicting from 1
Evicting from 1
Evicting from 1
Evicting from 1
Block's CPU : 1    Evicting CPU : 0    Different Cores!   SPYYY   j : 15
Cross Core Eviction!   63
Block's CPU : 1    Evicting CPU : 0    Different Cores!   SPYYY   j : 14
Cross Core Eviction!   64
Block's CPU : 0    Evicting CPU : 0    Same Core!    SAMEEE   j : 13
Evicting from 0
Evicting from 0
Evicting from 0
Evicting from 0
Block's CPU : 1    Evicting CPU : 0    Different Cores!   SPYYY   j : 15
Cross Core Eviction!   65
Block's CPU : 1    Evicting CPU : 0    Different Cores!   SPYYY   j : 14
Cross Core Eviction!   66
Block's CPU : 1    Evicting CPU : 0    Different Cores!   SPYYY   j : 13
Cross Core Eviction!   67
Block's CPU : 1    Evicting CPU : 0    Different Cores!   SPYYY   j : 12
Cross Core Eviction!   68
Breaking Point!    j : 11 Has a LRU : 12
Evicting from 1
Evicting from 1
Evicting from 1
Evicting from 1
Block's CPU : 0    Evicting CPU : 1    Different Cores!   SPYYY   j : 15
Cross Core Eviction!   69
Block's CPU : 1    Evicting CPU : 1    Same Core!    SAMEEE   j : 14
Evicting from 1
Evicting from 1
Evicting from 1
Evicting from 1
Block's CPU : 0    Evicting CPU : 0    Same Core!    SAMEEE   j : 15
Evicting from 0
Evicting from 0
Evicting from 0
Evicting from 0
Block's CPU : 1    Evicting CPU : 0    Different Cores!   SPYYY   j : 15
Cross Core Eviction!   70
Block's CPU : 0    Evicting CPU : 0    Same Core!    SAMEEE   j : 14
Evicting from 0
Evicting from 0
Evicting from 0
Evicting from 0
Block's CPU : 1    Evicting CPU : 1    Same Core!    SAMEEE   j : 15
Evicting from 1
Evicting from 1
Evicting from 1
Evicting from 1
Block's CPU : 0    Evicting CPU : 0    Same Core!    SAMEEE   j : 15
Evicting from 0
Evicting from 0
Evicting from 0
Evicting from 0
Block's CPU : 0    Evicting CPU : 1    Different Cores!   SPYYY   j : 15
Cross Core Eviction!   71
Block's CPU : 0    Evicting CPU : 1    Different Cores!   SPYYY   j : 14
Cross Core Eviction!   72
Block's CPU : 0    Evicting CPU : 1    Different Cores!   SPYYY   j : 13
Cross Core Eviction!   73
Block's CPU : 1    Evicting CPU : 1    Same Core!    SAMEEE   j : 12
Evicting from 1
Evicting from 1
Evicting from 1
Evicting from 1
Block's CPU : 0    Evicting CPU : 0    Same Core!    SAMEEE   j : 15
Evicting from 0
Evicting from 0
Evicting from 0
Evicting from 0
Block's CPU : 1    Evicting CPU : 0    Different Cores!   SPYYY   j : 15
Cross Core Eviction!   74
Block's CPU : 1    Evicting CPU : 0    Different Cores!   SPYYY   j : 14
Cross Core Eviction!   75
Block's CPU : 0    Evicting CPU : 0    Same Core!    SAMEEE   j : 13
Evicting from 0
Evicting from 0
Evicting from 0
Evicting from 0
Block's CPU : 0    Evicting CPU : 0    Same Core!    SAMEEE   j : 15
Evicting from 0
Evicting from 0
Evicting from 0
Evicting from 0
Block's CPU : 1    Evicting CPU : 0    Different Cores!   SPYYY   j : 15
Cross Core Eviction!   76
Block's CPU : 1    Evicting CPU : 0    Different Cores!   SPYYY   j : 14
Cross Core Eviction!   77
Block's CPU : 0    Evicting CPU : 0    Same Core!    SAMEEE   j : 13
Evicting from 0
Evicting from 0
Evicting from 0
Evicting from 0
Block's CPU : 1    Evicting CPU : 1    Same Core!    SAMEEE   j : 15
Evicting from 1
Evicting from 1
Evicting from 1
Evicting from 1
Block's CPU : 1    Evicting CPU : 1    Same Core!    SAMEEE   j : 15
Evicting from 1
Evicting from 1
Evicting from 1
Evicting from 1
Block's CPU : 0    Evicting CPU : 0    Same Core!    SAMEEE   j : 15
Evicting from 0
Evicting from 0
Evicting from 0
Evicting from 0
Block's CPU : 1    Evicting CPU : 1    Same Core!    SAMEEE   j : 15
Evicting from 1
Evicting from 1
Evicting from 1
Evicting from 1
Block's CPU : 1    Evicting CPU : 1    Same Core!    SAMEEE   j : 15
Evicting from 1
Evicting from 1
Evicting from 1
Evicting from 1
Block's CPU : 0    Evicting CPU : 0    Same Core!    SAMEEE   j : 15
Evicting from 0
Evicting from 0
Evicting from 0
Evicting from 0
Block's CPU : 1    Evicting CPU : 1    Same Core!    SAMEEE   j : 15
Evicting from 1
Evicting from 1
Evicting from 1
Evicting from 1
Block's CPU : 0    Evicting CPU : 0    Same Core!    SAMEEE   j : 15
Evicting from 0
Evicting from 0
Evicting from 0
Evicting from 0
Block's CPU : 0    Evicting CPU : 1    Different Cores!   SPYYY   j : 15
Cross Core Eviction!   78
Block's CPU : 1    Evicting CPU : 1    Same Core!    SAMEEE   j : 14
Evicting from 1
Evicting from 1
Evicting from 1
Evicting from 1
Block's CPU : 1    Evicting CPU : 0    Different Cores!   SPYYY   j : 15
Cross Core Eviction!   79
Block's CPU : 1    Evicting CPU : 0    Different Cores!   SPYYY   j : 14
Cross Core Eviction!   80
Block's CPU : 1    Evicting CPU : 0    Different Cores!   SPYYY   j : 13
Cross Core Eviction!   81
Block's CPU : 1    Evicting CPU : 0    Different Cores!   SPYYY   j : 12
Cross Core Eviction!   82
Breaking Point!    j : 11 Has a LRU : 12
Evicting from 1
Evicting from 1
Evicting from 1
Evicting from 1
Block's CPU : 0    Evicting CPU : 0    Same Core!    SAMEEE   j : 15
Evicting from 0
Evicting from 0
Evicting from 0
Evicting from 0
Block's CPU : 0    Evicting CPU : 1    Different Cores!   SPYYY   j : 15
Cross Core Eviction!   83
Block's CPU : 1    Evicting CPU : 1    Same Core!    SAMEEE   j : 14
Evicting from 1
Evicting from 1
Evicting from 1
Evicting from 1
Block's CPU : 1    Evicting CPU : 0    Different Cores!   SPYYY   j : 15
Cross Core Eviction!   84
Block's CPU : 1    Evicting CPU : 0    Different Cores!   SPYYY   j : 14
Cross Core Eviction!   85
Block's CPU : 1    Evicting CPU : 0    Different Cores!   SPYYY   j : 13
Cross Core Eviction!   86
Block's CPU : 0    Evicting CPU : 0    Same Core!    SAMEEE   j : 12
Evicting from 0
Evicting from 0
Evicting from 0
Evicting from 0
Block's CPU : 0    Evicting CPU : 1    Different Cores!   SPYYY   j : 15
Cross Core Eviction!   87
Block's CPU : 0    Evicting CPU : 1    Different Cores!   SPYYY   j : 14
Cross Core Eviction!   88
Block's CPU : 1    Evicting CPU : 1    Same Core!    SAMEEE   j : 13
Evicting from 1
Evicting from 1
Evicting from 1
Evicting from 1
Block's CPU : 0    Evicting CPU : 0    Same Core!    SAMEEE   j : 15
Evicting from 0
Evicting from 0
Evicting from 0
Evicting from 0
Block's CPU : 1    Evicting CPU : 1    Same Core!    SAMEEE   j : 15
Evicting from 1
Evicting from 1
Evicting from 1
Evicting from 1
Block's CPU : 1    Evicting CPU : 1    Same Core!    SAMEEE   j : 15
Evicting from 1
Evicting from 1
Evicting from 1
Evicting from 1
Block's CPU : 1    Evicting CPU : 1    Same Core!    SAMEEE   j : 15
Evicting from 1
Evicting from 1
Evicting from 1
Evicting from 1
Block's CPU : 0    Evicting CPU : 0    Same Core!    SAMEEE   j : 15
Evicting from 0
Evicting from 0
Evicting from 0
Evicting from 0
Block's CPU : 0    Evicting CPU : 1    Different Cores!   SPYYY   j : 15
Cross Core Eviction!   89
Block's CPU : 0    Evicting CPU : 1    Different Cores!   SPYYY   j : 14
Cross Core Eviction!   90
Block's CPU : 1    Evicting CPU : 1    Same Core!    SAMEEE   j : 13
Evicting from 1
Evicting from 1
Evicting from 1
Evicting from 1
Block's CPU : 1    Evicting CPU : 1    Same Core!    SAMEEE   j : 15
Evicting from 1
Evicting from 1
Evicting from 1
Evicting from 1
Block's CPU : 0    Evicting CPU : 1    Different Cores!   SPYYY   j : 15
Cross Core Eviction!   91
Block's CPU : 1    Evicting CPU : 1    Same Core!    SAMEEE   j : 14
Evicting from 1
Evicting from 1
Evicting from 1
Evicting from 1
Block's CPU : 0    Evicting CPU : 1    Different Cores!   SPYYY   j : 15
Cross Core Eviction!   92
Block's CPU : 0    Evicting CPU : 1    Different Cores!   SPYYY   j : 14
Cross Core Eviction!   93
Block's CPU : 0    Evicting CPU : 1    Different Cores!   SPYYY   j : 13
Cross Core Eviction!   94
Block's CPU : 1    Evicting CPU : 1    Same Core!    SAMEEE   j : 12
Evicting from 1
Evicting from 1
Evicting from 1
Evicting from 1
Block's CPU : 1    Evicting CPU : 0    Different Cores!   SPYYY   j : 15
Cross Core Eviction!   95
Block's CPU : 1    Evicting CPU : 0    Different Cores!   SPYYY   j : 14
Cross Core Eviction!   96
Block's CPU : 1    Evicting CPU : 0    Different Cores!   SPYYY   j : 13
Cross Core Eviction!   97
Block's CPU : 0    Evicting CPU : 0    Same Core!    SAMEEE   j : 12
Evicting from 0
Evicting from 0
Evicting from 0
Evicting from 0
Block's CPU : 0    Evicting CPU : 1    Different Cores!   SPYYY   j : 15
Cross Core Eviction!   98
Block's CPU : 1    Evicting CPU : 1    Same Core!    SAMEEE   j : 14
Evicting from 1
Evicting from 1
Evicting from 1
Evicting from 1
Block's CPU : 0    Evicting CPU : 1    Different Cores!   SPYYY   j : 15
Cross Core Eviction!   99
Block's CPU : 1    Evicting CPU : 1    Same Core!    SAMEEE   j : 14
Evicting from 1
Evicting from 1
Evicting from 1
Evicting from 1
Block's CPU : 0    Evicting CPU : 0    Same Core!    SAMEEE   j : 15
Evicting from 0
Evicting from 0
Evicting from 0
Evicting from 0
Block's CPU : 0    Evicting CPU : 0    Same Core!    SAMEEE   j : 15
Evicting from 0
Evicting from 0
Evicting from 0
Evicting from 0
Block's CPU : 0    Evicting CPU : 0    Same Core!    SAMEEE   j : 15
Evicting from 0
Evicting from 0
Evicting from 0
Evicting from 0
Block's CPU : 1    Evicting CPU : 1    Same Core!    SAMEEE   j : 15
Evicting from 1
Evicting from 1
Evicting from 1
Evicting from 1
Block's CPU : 0    Evicting CPU : 1    Different Cores!   SPYYY   j : 15
Cross Core Eviction!   100
Block's CPU : 1    Evicting CPU : 1    Same Core!    SAMEEE   j : 14
Evicting from 1
Evicting from 1
Evicting from 1
Evicting from 1
Block's CPU : 1    Evicting CPU : 1    Same Core!    SAMEEE   j : 15
Evicting from 1
Evicting from 1
Evicting from 1
Evicting from 1
Block's CPU : 1    Evicting CPU : 0    Different Cores!   SPYYY   j : 15
Cross Core Eviction!   101
Block's CPU : 0    Evicting CPU : 0    Same Core!    SAMEEE   j : 14
Evicting from 0
Evicting from 0
Evicting from 0
Evicting from 0
Block's CPU : 1    Evicting CPU : 1    Same Core!    SAMEEE   j : 15
Evicting from 1
Evicting from 1
Evicting from 1
Evicting from 1
Block's CPU : 1    Evicting CPU : 1    Same Core!    SAMEEE   j : 15
Evicting from 1
Evicting from 1
Evicting from 1
Evicting from 1
Block's CPU : 1    Evicting CPU : 1    Same Core!    SAMEEE   j : 15
Evicting from 1
Evicting from 1
Evicting from 1
Evicting from 1
Block's CPU : 0    Evicting CPU : 0    Same Core!    SAMEEE   j : 15
Evicting from 0
Evicting from 0
Evicting from 0
Evicting from 0
Block's CPU : 1    Evicting CPU : 1    Same Core!    SAMEEE   j : 15
Evicting from 1
Evicting from 1
Evicting from 1
Evicting from 1
Block's CPU : 0    Evicting CPU : 1    Different Cores!   SPYYY   j : 15
Cross Core Eviction!   102
Block's CPU : 1    Evicting CPU : 1    Same Core!    SAMEEE   j : 14
Evicting from 1
Evicting from 1
Evicting from 1
Evicting from 1
Block's CPU : 1    Evicting CPU : 0    Different Cores!   SPYYY   j : 15
Cross Core Eviction!   103
Block's CPU : 0    Evicting CPU : 0    Same Core!    SAMEEE   j : 14
Evicting from 0
Evicting from 0
Evicting from 0
Evicting from 0
Block's CPU : 1    Evicting CPU : 0    Different Cores!   SPYYY   j : 15
Cross Core Eviction!   104
Block's CPU : 0    Evicting CPU : 0    Same Core!    SAMEEE   j : 14
Evicting from 0
Evicting from 0
Evicting from 0
Evicting from 0
Block's CPU : 0    Evicting CPU : 1    Different Cores!   SPYYY   j : 15
Cross Core Eviction!   105
Block's CPU : 1    Evicting CPU : 1    Same Core!    SAMEEE   j : 14
Evicting from 1
Evicting from 1
Evicting from 1
Evicting from 1
Block's CPU : 0    Evicting CPU : 0    Same Core!    SAMEEE   j : 15
Evicting from 0
Evicting from 0
Evicting from 0
Evicting from 0
Block's CPU : 0    Evicting CPU : 0    Same Core!    SAMEEE   j : 15
Evicting from 0
Evicting from 0
Evicting from 0
Evicting from 0
Block's CPU : 1    Evicting CPU : 0    Different Cores!   SPYYY   j : 15
Cross Core Eviction!   106
Block's CPU : 0    Evicting CPU : 0    Same Core!    SAMEEE   j : 14
Evicting from 0
Evicting from 0
Evicting from 0
Evicting from 0
Block's CPU : 1    Evicting CPU : 1    Same Core!    SAMEEE   j : 15
Evicting from 1
Evicting from 1
Evicting from 1
Evicting from 1
Block's CPU : 1    Evicting CPU : 1    Same Core!    SAMEEE   j : 15
Evicting from 1
Evicting from 1
Evicting from 1
Evicting from 1
Block's CPU : 0    Evicting CPU : 0    Same Core!    SAMEEE   j : 15
Evicting from 0
Evicting from 0
Evicting from 0
Evicting from 0
Block's CPU : 1    Evicting CPU : 0    Different Cores!   SPYYY   j : 15
Cross Core Eviction!   107
Block's CPU : 0    Evicting CPU : 0    Same Core!    SAMEEE   j : 14
Evicting from 0
Evicting from 0
Evicting from 0
Evicting from 0
Block's CPU : 1    Evicting CPU : 0    Different Cores!   SPYYY   j : 15
Cross Core Eviction!   108
Block's CPU : 0    Evicting CPU : 0    Same Core!    SAMEEE   j : 14
Evicting from 0
Evicting from 0
Evicting from 0
Evicting from 0
Block's CPU : 1    Evicting CPU : 1    Same Core!    SAMEEE   j : 15
Evicting from 1
Evicting from 1
Evicting from 1
Evicting from 1
Block's CPU : 1    Evicting CPU : 1    Same Core!    SAMEEE   j : 15
Evicting from 1
Evicting from 1
Evicting from 1
Evicting from 1
Block's CPU : 1    Evicting CPU : 0    Different Cores!   SPYYY   j : 15
Cross Core Eviction!   109
Block's CPU : 1    Evicting CPU : 0    Different Cores!   SPYYY   j : 14
Cross Core Eviction!   110
Block's CPU : 0    Evicting CPU : 0    Same Core!    SAMEEE   j : 13
Evicting from 0
Evicting from 0
Evicting from 0
Evicting from 0
Block's CPU : 0    Evicting CPU : 0    Same Core!    SAMEEE   j : 15
Evicting from 0
Evicting from 0
Evicting from 0
Evicting from 0
Block's CPU : 0    Evicting CPU : 0    Same Core!    SAMEEE   j : 15
Evicting from 0
Evicting from 0
Evicting from 0
Evicting from 0
Block's CPU : 0    Evicting CPU : 1    Different Cores!   SPYYY   j : 15
Cross Core Eviction!   111
Block's CPU : 0    Evicting CPU : 1    Different Cores!   SPYYY   j : 14
Cross Core Eviction!   112
Block's CPU : 1    Evicting CPU : 1    Same Core!    SAMEEE   j : 13
Evicting from 1
Evicting from 1
Evicting from 1
Evicting from 1
Block's CPU : 0    Evicting CPU : 1    Different Cores!   SPYYY   j : 15
Cross Core Eviction!   113
Block's CPU : 0    Evicting CPU : 1    Different Cores!   SPYYY   j : 14
Cross Core Eviction!   114
Block's CPU : 0    Evicting CPU : 1    Different Cores!   SPYYY   j : 13
Cross Core Eviction!   115
Block's CPU : 1    Evicting CPU : 1    Same Core!    SAMEEE   j : 12
Evicting from 1
Evicting from 1
Evicting from 1
Evicting from 1
Block's CPU : 1    Evicting CPU : 0    Different Cores!   SPYYY   j : 15
Cross Core Eviction!   116
Block's CPU : 1    Evicting CPU : 0    Different Cores!   SPYYY   j : 14
Cross Core Eviction!   117
Block's CPU : 1    Evicting CPU : 0    Different Cores!   SPYYY   j : 13
Cross Core Eviction!   118
Block's CPU : 1    Evicting CPU : 0    Different Cores!   SPYYY   j : 12
Cross Core Eviction!   119
Breaking Point!    j : 11 Has a LRU : 12
Evicting from 1
Evicting from 1
Evicting from 1
Evicting from 1
Block's CPU : 0    Evicting CPU : 0    Same Core!    SAMEEE   j : 15
Evicting from 0
Evicting from 0
Evicting from 0
Evicting from 0
Block's CPU : 0    Evicting CPU : 0    Same Core!    SAMEEE   j : 15
Evicting from 0
Evicting from 0
Evicting from 0
Evicting from 0
Block's CPU : 1    Evicting CPU : 0    Different Cores!   SPYYY   j : 15
Cross Core Eviction!   120
Block's CPU : 0    Evicting CPU : 0    Same Core!    SAMEEE   j : 14
Evicting from 0
Evicting from 0
Evicting from 0
Evicting from 0
Block's CPU : 0    Evicting CPU : 0    Same Core!    SAMEEE   j : 15
Evicting from 0
Evicting from 0
Evicting from 0
Evicting from 0
Block's CPU : 0    Evicting CPU : 0    Same Core!    SAMEEE   j : 15
Evicting from 0
Evicting from 0
Evicting from 0
Evicting from 0
Block's CPU : 0    Evicting CPU : 1    Different Cores!   SPYYY   j : 15
Cross Core Eviction!   121
Block's CPU : 0    Evicting CPU : 1    Different Cores!   SPYYY   j : 14
Cross Core Eviction!   122
Block's CPU : 0    Evicting CPU : 1    Different Cores!   SPYYY   j : 13
Cross Core Eviction!   123
Block's CPU : 0    Evicting CPU : 1    Different Cores!   SPYYY   j : 12
Cross Core Eviction!   124
Breaking Point!    j : 11 Has a LRU : 12
Evicting from 0
Evicting from 0
Evicting from 0
Evicting from 0
Block's CPU : 1    Evicting CPU : 1    Same Core!    SAMEEE   j : 15
Evicting from 1
Evicting from 1
Evicting from 1
Evicting from 1
Block's CPU : 0    Evicting CPU : 1    Different Cores!   SPYYY   j : 15
Cross Core Eviction!   125
Block's CPU : 0    Evicting CPU : 1    Different Cores!   SPYYY   j : 14
Cross Core Eviction!   126
Block's CPU : 1    Evicting CPU : 1    Same Core!    SAMEEE   j : 13
Evicting from 1
Evicting from 1
Evicting from 1
Evicting from 1
Block's CPU : 0    Evicting CPU : 1    Different Cores!   SPYYY   j : 15
Cross Core Eviction!   127
Block's CPU : 0    Evicting CPU : 1    Different Cores!   SPYYY   j : 14
Cross Core Eviction!   128
Block's CPU : 1    Evicting CPU : 1    Same Core!    SAMEEE   j : 13
Evicting from 1
Evicting from 1
Evicting from 1
Evicting from 1
Block's CPU : 0    Evicting CPU : 1    Different Cores!   SPYYY   j : 15
Cross Core Eviction!   129
Block's CPU : 0    Evicting CPU : 1    Different Cores!   SPYYY   j : 14
Cross Core Eviction!   130
Block's CPU : 1    Evicting CPU : 1    Same Core!    SAMEEE   j : 13
Evicting from 1
Evicting from 1
Evicting from 1
Evicting from 1
Block's CPU : 0    Evicting CPU : 0    Same Core!    SAMEEE   j : 15
Evicting from 0
Evicting from 0
Evicting from 0
Evicting from 0
Block's CPU : 0    Evicting CPU : 0    Same Core!    SAMEEE   j : 15
Evicting from 0
Evicting from 0
Evicting from 0
Evicting from 0
Block's CPU : 1    Evicting CPU : 1    Same Core!    SAMEEE   j : 15
Evicting from 1
Evicting from 1
Evicting from 1
Evicting from 1
Block's CPU : 0    Evicting CPU : 1    Different Cores!   SPYYY   j : 15
Cross Core Eviction!   131
Block's CPU : 0    Evicting CPU : 1    Different Cores!   SPYYY   j : 14
Cross Core Eviction!   132
Block's CPU : 1    Evicting CPU : 1    Same Core!    SAMEEE   j : 13
Evicting from 1
Evicting from 1
Evicting from 1
Evicting from 1
Block's CPU : 1    Evicting CPU : 1    Same Core!    SAMEEE   j : 15
Evicting from 1
Evicting from 1
Evicting from 1
Evicting from 1
Block's CPU : 0    Evicting CPU : 0    Same Core!    SAMEEE   j : 15
Evicting from 0
Evicting from 0
Evicting from 0
Evicting from 0
Block's CPU : 1    Evicting CPU : 1    Same Core!    SAMEEE   j : 15
Evicting from 1
Evicting from 1
Evicting from 1
Evicting from 1
Block's CPU : 1    Evicting CPU : 1    Same Core!    SAMEEE   j : 15
Evicting from 1
Evicting from 1
Evicting from 1
Evicting from 1
Block's CPU : 0    Evicting CPU : 0    Same Core!    SAMEEE   j : 15
Evicting from 0
Evicting from 0
Evicting from 0
Evicting from 0
Block's CPU : 0    Evicting CPU : 1    Different Cores!   SPYYY   j : 15
Cross Core Eviction!   133
Block's CPU : 0    Evicting CPU : 1    Different Cores!   SPYYY   j : 14
Cross Core Eviction!   134
Block's CPU : 1    Evicting CPU : 1    Same Core!    SAMEEE   j : 13
Evicting from 1
Evicting from 1
Evicting from 1
Evicting from 1
Block's CPU : 1    Evicting CPU : 1    Same Core!    SAMEEE   j : 15
Evicting from 1
Evicting from 1
Evicting from 1
Evicting from 1
Block's CPU : 1    Evicting CPU : 1    Same Core!    SAMEEE   j : 15
Evicting from 1
Evicting from 1
Evicting from 1
Evicting from 1
Block's CPU : 0    Evicting CPU : 0    Same Core!    SAMEEE   j : 15
Evicting from 0
Evicting from 0
Evicting from 0
Evicting from 0
Block's CPU : 1    Evicting CPU : 1    Same Core!    SAMEEE   j : 15
Evicting from 1
Evicting from 1
Evicting from 1
Evicting from 1
Block's CPU : 0    Evicting CPU : 0    Same Core!    SAMEEE   j : 15
Evicting from 0
Evicting from 0
Evicting from 0
Evicting from 0
Block's CPU : 1    Evicting CPU : 0    Different Cores!   SPYYY   j : 15
Cross Core Eviction!   135
Block's CPU : 0    Evicting CPU : 0    Same Core!    SAMEEE   j : 14
Evicting from 0
Evicting from 0
Evicting from 0
Evicting from 0
Block's CPU : 1    Evicting CPU : 0    Different Cores!   SPYYY   j : 15
Cross Core Eviction!   136
Block's CPU : 1    Evicting CPU : 0    Different Cores!   SPYYY   j : 14
Cross Core Eviction!   137
Block's CPU : 0    Evicting CPU : 0    Same Core!    SAMEEE   j : 13
Evicting from 0
Evicting from 0
Evicting from 0
Evicting from 0
Block's CPU : 1    Evicting CPU : 1    Same Core!    SAMEEE   j : 15
Evicting from 1
Evicting from 1
Evicting from 1
Evicting from 1
Block's CPU : 0    Evicting CPU : 0    Same Core!    SAMEEE   j : 15
Evicting from 0
Evicting from 0
Evicting from 0
Evicting from 0
Block's CPU : 0    Evicting CPU : 0    Same Core!    SAMEEE   j : 15
Evicting from 0
Evicting from 0
Evicting from 0
Evicting from 0
Block's CPU : 0    Evicting CPU : 1    Different Cores!   SPYYY   j : 15
Cross Core Eviction!   138
Block's CPU : 0    Evicting CPU : 1    Different Cores!   SPYYY   j : 14
Cross Core Eviction!   139
Block's CPU : 1    Evicting CPU : 1    Same Core!    SAMEEE   j : 13
Evicting from 1
Evicting from 1
Evicting from 1
Evicting from 1
Block's CPU : 0    Evicting CPU : 0    Same Core!    SAMEEE   j : 15
Evicting from 0
Evicting from 0
Evicting from 0
Evicting from 0
Block's CPU : 1    Evicting CPU : 0    Different Cores!   SPYYY   j : 15
Cross Core Eviction!   140
Block's CPU : 1    Evicting CPU : 0    Different Cores!   SPYYY   j : 14
Cross Core Eviction!   141
Block's CPU : 1    Evicting CPU : 0    Different Cores!   SPYYY   j : 13
Cross Core Eviction!   142
Block's CPU : 0    Evicting CPU : 0    Same Core!    SAMEEE   j : 12
Evicting from 0
Evicting from 0
Evicting from 0
Evicting from 0
Block's CPU : 1    Evicting CPU : 0    Different Cores!   SPYYY   j : 15
Cross Core Eviction!   143
Block's CPU : 1    Evicting CPU : 0    Different Cores!   SPYYY   j : 14
Cross Core Eviction!   144
Block's CPU : 0    Evicting CPU : 0    Same Core!    SAMEEE   j : 13
Evicting from 0
Evicting from 0
Evicting from 0
Evicting from 0
Block's CPU : 1    Evicting CPU : 0    Different Cores!   SPYYY   j : 15
Cross Core Eviction!   145
Block's CPU : 1    Evicting CPU : 0    Different Cores!   SPYYY   j : 14
Cross Core Eviction!   146
Block's CPU : 0    Evicting CPU : 0    Same Core!    SAMEEE   j : 13
Evicting from 0
Evicting from 0
Evicting from 0
Evicting from 0
Block's CPU : 1    Evicting CPU : 0    Different Cores!   SPYYY   j : 15
Cross Core Eviction!   147
Block's CPU : 1    Evicting CPU : 0    Different Cores!   SPYYY   j : 14
Cross Core Eviction!   148
Block's CPU : 1    Evicting CPU : 0    Different Cores!   SPYYY   j : 13
Cross Core Eviction!   149
Block's CPU : 1    Evicting CPU : 0    Different Cores!   SPYYY   j : 12
Cross Core Eviction!   150
Breaking Point!    j : 11 Has a LRU : 12
Evicting from 1
Evicting from 1
Evicting from 1
Evicting from 1
Block's CPU : 0    Evicting CPU : 0    Same Core!    SAMEEE   j : 15
Evicting from 0
Evicting from 0
Evicting from 0
Evicting from 0
Block's CPU : 0    Evicting CPU : 1    Different Cores!   SPYYY   j : 15
Cross Core Eviction!   151
Block's CPU : 1    Evicting CPU : 1    Same Core!    SAMEEE   j : 14
Evicting from 1
Evicting from 1
Evicting from 1
Evicting from 1
Block's CPU : 0    Evicting CPU : 0    Same Core!    SAMEEE   j : 15
Evicting from 0
Evicting from 0
Evicting from 0
Evicting from 0
Block's CPU : 1    Evicting CPU : 1    Same Core!    SAMEEE   j : 15
Evicting from 1
Evicting from 1
Evicting from 1
Evicting from 1
Block's CPU : 1    Evicting CPU : 1    Same Core!    SAMEEE   j : 15
Evicting from 1
Evicting from 1
Evicting from 1
Evicting from 1
Block's CPU : 0    Evicting CPU : 1    Different Cores!   SPYYY   j : 15
Cross Core Eviction!   152
Block's CPU : 1    Evicting CPU : 1    Same Core!    SAMEEE   j : 14
Evicting from 1
Evicting from 1
Evicting from 1
Evicting from 1
Block's CPU : 0    Evicting CPU : 0    Same Core!    SAMEEE   j : 15
Evicting from 0
Evicting from 0
Evicting from 0
Evicting from 0
Block's CPU : 1    Evicting CPU : 0    Different Cores!   SPYYY   j : 15
Cross Core Eviction!   153
Block's CPU : 0    Evicting CPU : 0    Same Core!    SAMEEE   j : 14
Evicting from 0
Evicting from 0
Evicting from 0
Evicting from 0
Block's CPU : 0    Evicting CPU : 0    Same Core!    SAMEEE   j : 15
Evicting from 0
Evicting from 0
Evicting from 0
Evicting from 0
Block's CPU : 1    Evicting CPU : 0    Different Cores!   SPYYY   j : 15
Cross Core Eviction!   154
Block's CPU : 1    Evicting CPU : 0    Different Cores!   SPYYY   j : 14
Cross Core Eviction!   155
Block's CPU : 1    Evicting CPU : 0    Different Cores!   SPYYY   j : 13
Cross Core Eviction!   156
Block's CPU : 0    Evicting CPU : 0    Same Core!    SAMEEE   j : 12
Evicting from 0
Evicting from 0
Evicting from 0
Evicting from 0
Block's CPU : 1    Evicting CPU : 0    Different Cores!   SPYYY   j : 15
Cross Core Eviction!   157
Block's CPU : 1    Evicting CPU : 0    Different Cores!   SPYYY   j : 14
Cross Core Eviction!   158
Block's CPU : 1    Evicting CPU : 0    Different Cores!   SPYYY   j : 13
Cross Core Eviction!   159
Block's CPU : 1    Evicting CPU : 0    Different Cores!   SPYYY   j : 12
Cross Core Eviction!   160
Breaking Point!    j : 11 Has a LRU : 12
Evicting from 1
Evicting from 1
Evicting from 1
Evicting from 1
Block's CPU : 0    Evicting CPU : 0    Same Core!    SAMEEE   j : 15
Evicting from 0
Evicting from 0
Evicting from 0
Evicting from 0
Block's CPU : 0    Evicting CPU : 1    Different Cores!   SPYYY   j : 15
Cross Core Eviction!   161
Block's CPU : 1    Evicting CPU : 1    Same Core!    SAMEEE   j : 14
Evicting from 1
Evicting from 1
Evicting from 1
Evicting from 1
Block's CPU : 1    Evicting CPU : 0    Different Cores!   SPYYY   j : 15
Cross Core Eviction!   162
Block's CPU : 1    Evicting CPU : 0    Different Cores!   SPYYY   j : 14
Cross Core Eviction!   163
Block's CPU : 0    Evicting CPU : 0    Same Core!    SAMEEE   j : 13
Evicting from 0
Evicting from 0
Evicting from 0
Evicting from 0
Block's CPU : 1    Evicting CPU : 0    Different Cores!   SPYYY   j : 15
Cross Core Eviction!   164
Block's CPU : 1    Evicting CPU : 0    Different Cores!   SPYYY   j : 14
Cross Core Eviction!   165
Block's CPU : 1    Evicting CPU : 0    Different Cores!   SPYYY   j : 13
Cross Core Eviction!   166
Block's CPU : 0    Evicting CPU : 0    Same Core!    SAMEEE   j : 12
Evicting from 0
Evicting from 0
Evicting from 0
Evicting from 0
Block's CPU : 0    Evicting CPU : 0    Same Core!    SAMEEE   j : 15
Evicting from 0
Evicting from 0
Evicting from 0
Evicting from 0
Block's CPU : 0    Evicting CPU : 0    Same Core!    SAMEEE   j : 15
Evicting from 0
Evicting from 0
Evicting from 0
Evicting from 0
Block's CPU : 1    Evicting CPU : 1    Same Core!    SAMEEE   j : 15
Evicting from 1
Evicting from 1
Evicting from 1
Evicting from 1
Block's CPU : 1    Evicting CPU : 1    Same Core!    SAMEEE   j : 15
Evicting from 1
Evicting from 1
Evicting from 1
Evicting from 1
Block's CPU : 1    Evicting CPU : 0    Different Cores!   SPYYY   j : 15
Cross Core Eviction!   167
Block's CPU : 0    Evicting CPU : 0    Same Core!    SAMEEE   j : 14
Evicting from 0
Evicting from 0
Evicting from 0
Evicting from 0
Block's CPU : 1    Evicting CPU : 1    Same Core!    SAMEEE   j : 15
Evicting from 1
Evicting from 1
Evicting from 1
Evicting from 1
Block's CPU : 1    Evicting CPU : 0    Different Cores!   SPYYY   j : 15
Cross Core Eviction!   168
Block's CPU : 1    Evicting CPU : 0    Different Cores!   SPYYY   j : 14
Cross Core Eviction!   169
Block's CPU : 0    Evicting CPU : 0    Same Core!    SAMEEE   j : 13
Evicting from 0
Evicting from 0
Evicting from 0
Evicting from 0
Block's CPU : 1    Evicting CPU : 0    Different Cores!   SPYYY   j : 15
Cross Core Eviction!   170
Block's CPU : 1    Evicting CPU : 0    Different Cores!   SPYYY   j : 14
Cross Core Eviction!   171
Block's CPU : 0    Evicting CPU : 0    Same Core!    SAMEEE   j : 13
Evicting from 0
Evicting from 0
Evicting from 0
Evicting from 0
Block's CPU : 1    Evicting CPU : 0    Different Cores!   SPYYY   j : 15
Cross Core Eviction!   172
Block's CPU : 1    Evicting CPU : 0    Different Cores!   SPYYY   j : 14
Cross Core Eviction!   173
Block's CPU : 1    Evicting CPU : 0    Different Cores!   SPYYY   j : 13
Cross Core Eviction!   174
Block's CPU : 1    Evicting CPU : 0    Different Cores!   SPYYY   j : 12
Cross Core Eviction!   175
Breaking Point!    j : 11 Has a LRU : 12
Evicting from 1
Evicting from 1
Evicting from 1
Evicting from 1
Block's CPU : 1    Evicting CPU : 1    Same Core!    SAMEEE   j : 15
Evicting from 1
Evicting from 1
Evicting from 1
Evicting from 1
Block's CPU : 1    Evicting CPU : 1    Same Core!    SAMEEE   j : 15
Evicting from 1
Evicting from 1
Evicting from 1
Evicting from 1
Block's CPU : 1    Evicting CPU : 0    Different Cores!   SPYYY   j : 15
Cross Core Eviction!   176
Block's CPU : 0    Evicting CPU : 0    Same Core!    SAMEEE   j : 14
Evicting from 0
Evicting from 0
Evicting from 0
Evicting from 0
Block's CPU : 0    Evicting CPU : 1    Different Cores!   SPYYY   j : 15
Cross Core Eviction!   177
Block's CPU : 0    Evicting CPU : 1    Different Cores!   SPYYY   j : 14
Cross Core Eviction!   178
Block's CPU : 1    Evicting CPU : 1    Same Core!    SAMEEE   j : 13
Evicting from 1
Evicting from 1
Evicting from 1
Evicting from 1
Block's CPU : 1    Evicting CPU : 1    Same Core!    SAMEEE   j : 15
Evicting from 1
Evicting from 1
Evicting from 1
Evicting from 1
Block's CPU : 0    Evicting CPU : 0    Same Core!    SAMEEE   j : 15
Evicting from 0
Evicting from 0
Evicting from 0
Evicting from 0
Block's CPU : 0    Evicting CPU : 0    Same Core!    SAMEEE   j : 15
Evicting from 0
Evicting from 0
Evicting from 0
Evicting from 0
Block's CPU : 0    Evicting CPU : 1    Different Cores!   SPYYY   j : 15
Cross Core Eviction!   179
Block's CPU : 0    Evicting CPU : 1    Different Cores!   SPYYY   j : 14
Cross Core Eviction!   180
Block's CPU : 0    Evicting CPU : 1    Different Cores!   SPYYY   j : 13
Cross Core Eviction!   181
Block's CPU : 0    Evicting CPU : 1    Different Cores!   SPYYY   j : 12
Cross Core Eviction!   182
Breaking Point!    j : 11 Has a LRU : 12
Evicting from 0
Evicting from 0
Evicting from 0
Evicting from 0
Block's CPU : 0    Evicting CPU : 1    Different Cores!   SPYYY   j : 15
Cross Core Eviction!   183
Block's CPU : 0    Evicting CPU : 1    Different Cores!   SPYYY   j : 14
Cross Core Eviction!   184
Block's CPU : 1    Evicting CPU : 1    Same Core!    SAMEEE   j : 13
Evicting from 1
Evicting from 1
Evicting from 1
Evicting from 1
Block's CPU : 1    Evicting CPU : 0    Different Cores!   SPYYY   j : 15
Cross Core Eviction!   185
Block's CPU : 0    Evicting CPU : 0    Same Core!    SAMEEE   j : 14
Evicting from 0
Evicting from 0
Evicting from 0
Evicting from 0
Block's CPU : 1    Evicting CPU : 1    Same Core!    SAMEEE   j : 15
Evicting from 1
Evicting from 1
Evicting from 1
Evicting from 1
Block's CPU : 1    Evicting CPU : 0    Different Cores!   SPYYY   j : 15
Cross Core Eviction!   186
Block's CPU : 0    Evicting CPU : 0    Same Core!    SAMEEE   j : 14
Evicting from 0
Evicting from 0
Evicting from 0
Evicting from 0
Block's CPU : 0    Evicting CPU : 1    Different Cores!   SPYYY   j : 15
Cross Core Eviction!   187
Block's CPU : 1    Evicting CPU : 1    Same Core!    SAMEEE   j : 14
Evicting from 1
Evicting from 1
Evicting from 1
Evicting from 1
Block's CPU : 0    Evicting CPU : 0    Same Core!    SAMEEE   j : 15
Evicting from 0
Evicting from 0
Evicting from 0
Evicting from 0
Block's CPU : 1    Evicting CPU : 0    Different Cores!   SPYYY   j : 15
Cross Core Eviction!   188
Block's CPU : 1    Evicting CPU : 0    Different Cores!   SPYYY   j : 14
Cross Core Eviction!   189
Block's CPU : 1    Evicting CPU : 0    Different Cores!   SPYYY   j : 13
Cross Core Eviction!   190
Block's CPU : 0    Evicting CPU : 0    Same Core!    SAMEEE   j : 12
Evicting from 0
Evicting from 0
Evicting from 0
Evicting from 0
Block's CPU : 1    Evicting CPU : 0    Different Cores!   SPYYY   j : 15
Cross Core Eviction!   191
Block's CPU : 1    Evicting CPU : 0    Different Cores!   SPYYY   j : 14
Cross Core Eviction!   192
Block's CPU : 1    Evicting CPU : 0    Different Cores!   SPYYY   j : 13
Cross Core Eviction!   193
Block's CPU : 1    Evicting CPU : 0    Different Cores!   SPYYY   j : 12
Cross Core Eviction!   194
Breaking Point!    j : 11 Has a LRU : 12
Evicting from 1
Evicting from 1
Evicting from 1
Evicting from 1
Block's CPU : 1    Evicting CPU : 1    Same Core!    SAMEEE   j : 15
Evicting from 1
Evicting from 1
Evicting from 1
Evicting from 1
Block's CPU : 0    Evicting CPU : 1    Different Cores!   SPYYY   j : 15
Cross Core Eviction!   195
Block's CPU : 1    Evicting CPU : 1    Same Core!    SAMEEE   j : 14
Evicting from 1
Evicting from 1
Evicting from 1
Evicting from 1
Block's CPU : 0    Evicting CPU : 1    Different Cores!   SPYYY   j : 15
Cross Core Eviction!   196
Block's CPU : 1    Evicting CPU : 1    Same Core!    SAMEEE   j : 14
Evicting from 1
Evicting from 1
Evicting from 1
Evicting from 1
Block's CPU : 0    Evicting CPU : 1    Different Cores!   SPYYY   j : 15
Cross Core Eviction!   197
Block's CPU : 1    Evicting CPU : 1    Same Core!    SAMEEE   j : 14
Evicting from 1
Evicting from 1
Evicting from 1
Evicting from 1
Block's CPU : 1    Evicting CPU : 0    Different Cores!   SPYYY   j : 15
Cross Core Eviction!   198
Block's CPU : 0    Evicting CPU : 0    Same Core!    SAMEEE   j : 14
Evicting from 0
Evicting from 0
Evicting from 0
Evicting from 0
Block's CPU : 0    Evicting CPU : 0    Same Core!    SAMEEE   j : 15
Evicting from 0
Evicting from 0
Evicting from 0
Evicting from 0
Block's CPU : 1    Evicting CPU : 0    Different Cores!   SPYYY   j : 15
Cross Core Eviction!   199
Block's CPU : 1    Evicting CPU : 0    Different Cores!   SPYYY   j : 14
Cross Core Eviction!   200
Block's CPU : 0    Evicting CPU : 0    Same Core!    SAMEEE   j : 13
Evicting from 0
Evicting from 0
Evicting from 0
Evicting from 0
Block's CPU : 1    Evicting CPU : 0    Different Cores!   SPYYY   j : 15
Cross Core Eviction!   201
Block's CPU : 0    Evicting CPU : 0    Same Core!    SAMEEE   j : 14
Evicting from 0
Evicting from 0
Evicting from 0
Evicting from 0
Block's CPU : 1    Evicting CPU : 1    Same Core!    SAMEEE   j : 15
Evicting from 1
Evicting from 1
Evicting from 1
Evicting from 1
Block's CPU : 0    Evicting CPU : 1    Different Cores!   SPYYY   j : 15
Cross Core Eviction!   202
Block's CPU : 1    Evicting CPU : 1    Same Core!    SAMEEE   j : 14
Evicting from 1
Evicting from 1
Evicting from 1
Evicting from 1
Block's CPU : 1    Evicting CPU : 0    Different Cores!   SPYYY   j : 15
Cross Core Eviction!   203
Block's CPU : 1    Evicting CPU : 0    Different Cores!   SPYYY   j : 14
Cross Core Eviction!   204
Block's CPU : 1    Evicting CPU : 0    Different Cores!   SPYYY   j : 13
Cross Core Eviction!   205
Block's CPU : 0    Evicting CPU : 0    Same Core!    SAMEEE   j : 12
Evicting from 0
Evicting from 0
Evicting from 0
Evicting from 0
Block's CPU : 1    Evicting CPU : 1    Same Core!    SAMEEE   j : 15
Evicting from 1
Evicting from 1
Evicting from 1
Evicting from 1
Block's CPU : 1    Evicting CPU : 1    Same Core!    SAMEEE   j : 15
Evicting from 1
Evicting from 1
Evicting from 1
Evicting from 1
Block's CPU : 1    Evicting CPU : 1    Same Core!    SAMEEE   j : 15
Evicting from 1
Evicting from 1
Evicting from 1
Evicting from 1
Block's CPU : 1    Evicting CPU : 0    Different Cores!   SPYYY   j : 15
Cross Core Eviction!   206
Block's CPU : 1    Evicting CPU : 0    Different Cores!   SPYYY   j : 14
Cross Core Eviction!   207
Block's CPU : 1    Evicting CPU : 0    Different Cores!   SPYYY   j : 13
Cross Core Eviction!   208
Block's CPU : 0    Evicting CPU : 0    Same Core!    SAMEEE   j : 12
Evicting from 0
Evicting from 0
Evicting from 0
Evicting from 0
Block's CPU : 1    Evicting CPU : 1    Same Core!    SAMEEE   j : 15
Evicting from 1
Evicting from 1
Evicting from 1
Evicting from 1
Block's CPU : 0    Evicting CPU : 1    Different Cores!   SPYYY   j : 15
Cross Core Eviction!   209
Block's CPU : 0    Evicting CPU : 1    Different Cores!   SPYYY   j : 14
Cross Core Eviction!   210
Block's CPU : 1    Evicting CPU : 1    Same Core!    SAMEEE   j : 13
Evicting from 1
Evicting from 1
Evicting from 1
Evicting from 1
Block's CPU : 1    Evicting CPU : 0    Different Cores!   SPYYY   j : 15
Cross Core Eviction!   211
Block's CPU : 1    Evicting CPU : 0    Different Cores!   SPYYY   j : 14
Cross Core Eviction!   212
Block's CPU : 1    Evicting CPU : 0    Different Cores!   SPYYY   j : 13
Cross Core Eviction!   213
Block's CPU : 1    Evicting CPU : 0    Different Cores!   SPYYY   j : 12
Cross Core Eviction!   214
Breaking Point!    j : 11 Has a LRU : 12
Evicting from 1
Evicting from 1
Evicting from 1
Evicting from 1
Block's CPU : 1    Evicting CPU : 0    Different Cores!   SPYYY   j : 15
Cross Core Eviction!   215
Block's CPU : 1    Evicting CPU : 0    Different Cores!   SPYYY   j : 14
Cross Core Eviction!   216
Block's CPU : 0    Evicting CPU : 0    Same Core!    SAMEEE   j : 13
Evicting from 0
Evicting from 0
Evicting from 0
Evicting from 0
Block's CPU : 1    Evicting CPU : 0    Different Cores!   SPYYY   j : 15
Cross Core Eviction!   217
Block's CPU : 0    Evicting CPU : 0    Same Core!    SAMEEE   j : 14
Evicting from 0
Evicting from 0
Evicting from 0
Evicting from 0
Block's CPU : 0    Evicting CPU : 1    Different Cores!   SPYYY   j : 15
Cross Core Eviction!   218
Block's CPU : 1    Evicting CPU : 1    Same Core!    SAMEEE   j : 14
Evicting from 1
Evicting from 1
Evicting from 1
Evicting from 1
Block's CPU : 0    Evicting CPU : 1    Different Cores!   SPYYY   j : 15
Cross Core Eviction!   219
Block's CPU : 1    Evicting CPU : 1    Same Core!    SAMEEE   j : 14
Evicting from 1
Evicting from 1
Evicting from 1
Evicting from 1
Block's CPU : 1    Evicting CPU : 1    Same Core!    SAMEEE   j : 15
Evicting from 1
Evicting from 1
Evicting from 1
Evicting from 1
Block's CPU : 1    Evicting CPU : 0    Different Cores!   SPYYY   j : 15
Cross Core Eviction!   220
Block's CPU : 1    Evicting CPU : 0    Different Cores!   SPYYY   j : 14
Cross Core Eviction!   221
Block's CPU : 1    Evicting CPU : 0    Different Cores!   SPYYY   j : 13
Cross Core Eviction!   222
Block's CPU : 1    Evicting CPU : 0    Different Cores!   SPYYY   j : 12
Cross Core Eviction!   223
Breaking Point!    j : 11 Has a LRU : 12
Evicting from 1
Evicting from 1
Evicting from 1
Evicting from 1
Block's CPU : 0    Evicting CPU : 0    Same Core!    SAMEEE   j : 15
Evicting from 0
Evicting from 0
Evicting from 0
Evicting from 0
Block's CPU : 1    Evicting CPU : 0    Different Cores!   SPYYY   j : 15
Cross Core Eviction!   224
Block's CPU : 0    Evicting CPU : 0    Same Core!    SAMEEE   j : 14
Evicting from 0
Evicting from 0
Evicting from 0
Evicting from 0
Block's CPU : 0    Evicting CPU : 0    Same Core!    SAMEEE   j : 15
Evicting from 0
Evicting from 0
Evicting from 0
Evicting from 0
Block's CPU : 1    Evicting CPU : 0    Different Cores!   SPYYY   j : 15
Cross Core Eviction!   225
Block's CPU : 1    Evicting CPU : 0    Different Cores!   SPYYY   j : 14
Cross Core Eviction!   226
Block's CPU : 1    Evicting CPU : 0    Different Cores!   SPYYY   j : 13
Cross Core Eviction!   227
Block's CPU : 1    Evicting CPU : 0    Different Cores!   SPYYY   j : 12
Cross Core Eviction!   228
Breaking Point!    j : 11 Has a LRU : 12
Evicting from 1
Evicting from 1
Evicting from 1
Evicting from 1
Block's CPU : 0    Evicting CPU : 0    Same Core!    SAMEEE   j : 15
Evicting from 0
Evicting from 0
Evicting from 0
Evicting from 0
Block's CPU : 1    Evicting CPU : 1    Same Core!    SAMEEE   j : 15
Evicting from 1
Evicting from 1
Evicting from 1
Evicting from 1
Block's CPU : 1    Evicting CPU : 0    Different Cores!   SPYYY   j : 15
Cross Core Eviction!   229
Block's CPU : 1    Evicting CPU : 0    Different Cores!   SPYYY   j : 14
Cross Core Eviction!   230
Block's CPU : 1    Evicting CPU : 0    Different Cores!   SPYYY   j : 13
Cross Core Eviction!   231
Block's CPU : 1    Evicting CPU : 0    Different Cores!   SPYYY   j : 12
Cross Core Eviction!   232
Breaking Point!    j : 11 Has a LRU : 12
Evicting from 1
Evicting from 1
Evicting from 1
Evicting from 1
Block's CPU : 0    Evicting CPU : 0    Same Core!    SAMEEE   j : 15
Evicting from 0
Evicting from 0
Evicting from 0
Evicting from 0
Block's CPU : 0    Evicting CPU : 0    Same Core!    SAMEEE   j : 15
Evicting from 0
Evicting from 0
Evicting from 0
Evicting from 0
Block's CPU : 0    Evicting CPU : 0    Same Core!    SAMEEE   j : 15
Evicting from 0
Evicting from 0
Evicting from 0
Evicting from 0
Block's CPU : 1    Evicting CPU : 1    Same Core!    SAMEEE   j : 15
Evicting from 1
Evicting from 1
Evicting from 1
Evicting from 1
Block's CPU : 1    Evicting CPU : 1    Same Core!    SAMEEE   j : 15
Evicting from 1
Evicting from 1
Evicting from 1
Evicting from 1
Block's CPU : 1    Evicting CPU : 1    Same Core!    SAMEEE   j : 15
Evicting from 1
Evicting from 1
Evicting from 1
Evicting from 1
Block's CPU : 0    Evicting CPU : 1    Different Cores!   SPYYY   j : 15
Cross Core Eviction!   233
Block's CPU : 1    Evicting CPU : 1    Same Core!    SAMEEE   j : 14
Evicting from 1
Evicting from 1
Evicting from 1
Evicting from 1
Block's CPU : 0    Evicting CPU : 1    Different Cores!   SPYYY   j : 15
Cross Core Eviction!   234
Block's CPU : 0    Evicting CPU : 1    Different Cores!   SPYYY   j : 14
Cross Core Eviction!   235
Block's CPU : 0    Evicting CPU : 1    Different Cores!   SPYYY   j : 13
Cross Core Eviction!   236
Block's CPU : 0    Evicting CPU : 1    Different Cores!   SPYYY   j : 12
Cross Core Eviction!   237
Breaking Point!    j : 11 Has a LRU : 12
Evicting from 0
Evicting from 0
Evicting from 0
Evicting from 0
Block's CPU : 0    Evicting CPU : 1    Different Cores!   SPYYY   j : 15
Cross Core Eviction!   238
Block's CPU : 1    Evicting CPU : 1    Same Core!    SAMEEE   j : 14
Evicting from 1
Evicting from 1
Evicting from 1
Evicting from 1
Block's CPU : 0    Evicting CPU : 1    Different Cores!   SPYYY   j : 15
Cross Core Eviction!   239
Block's CPU : 1    Evicting CPU : 1    Same Core!    SAMEEE   j : 14
Evicting from 1
Evicting from 1
Evicting from 1
Evicting from 1
Block's CPU : 1    Evicting CPU : 1    Same Core!    SAMEEE   j : 15
Evicting from 1
Evicting from 1
Evicting from 1
Evicting from 1
Block's CPU : 1    Evicting CPU : 0    Different Cores!   SPYYY   j : 15
Cross Core Eviction!   240
Block's CPU : 0    Evicting CPU : 0    Same Core!    SAMEEE   j : 14
Evicting from 0
Evicting from 0
Evicting from 0
Evicting from 0
Block's CPU : 0    Evicting CPU : 1    Different Cores!   SPYYY   j : 15
Cross Core Eviction!   241
Block's CPU : 1    Evicting CPU : 1    Same Core!    SAMEEE   j : 14
Evicting from 1
Evicting from 1
Evicting from 1
Evicting from 1
Block's CPU : 0    Evicting CPU : 1    Different Cores!   SPYYY   j : 15
Cross Core Eviction!   242
Block's CPU : 1    Evicting CPU : 1    Same Core!    SAMEEE   j : 14
Evicting from 1
Evicting from 1
Evicting from 1
Evicting from 1
Block's CPU : 0    Evicting CPU : 1    Different Cores!   SPYYY   j : 15
Cross Core Eviction!   243
Block's CPU : 0    Evicting CPU : 1    Different Cores!   SPYYY   j : 14
Cross Core Eviction!   244
Block's CPU : 0    Evicting CPU : 1    Different Cores!   SPYYY   j : 13
Cross Core Eviction!   245
Block's CPU : 0    Evicting CPU : 1    Different Cores!   SPYYY   j : 12
Cross Core Eviction!   246
Breaking Point!    j : 11 Has a LRU : 12
Evicting from 0
Evicting from 0
Evicting from 0
Evicting from 0
Block's CPU : 1    Evicting CPU : 0    Different Cores!   SPYYY   j : 15
Cross Core Eviction!   247
Block's CPU : 1    Evicting CPU : 0    Different Cores!   SPYYY   j : 14
Cross Core Eviction!   248
Block's CPU : 1    Evicting CPU : 0    Different Cores!   SPYYY   j : 13
Cross Core Eviction!   249
Block's CPU : 1    Evicting CPU : 0    Different Cores!   SPYYY   j : 12
Cross Core Eviction!   250
Breaking Point!    j : 11 Has a LRU : 12
Evicting from 1
Evicting from 1
Evicting from 1
Evicting from 1
Block's CPU : 1    Evicting CPU : 0    Different Cores!   SPYYY   j : 15
Cross Core Eviction!   251
Block's CPU : 1    Evicting CPU : 0    Different Cores!   SPYYY   j : 14
Cross Core Eviction!   252
Block's CPU : 1    Evicting CPU : 0    Different Cores!   SPYYY   j : 13
Cross Core Eviction!   253
Block's CPU : 1    Evicting CPU : 0    Different Cores!   SPYYY   j : 12
Cross Core Eviction!   254
Breaking Point!    j : 11 Has a LRU : 12
Evicting from 1
Evicting from 1
Evicting from 1
Evicting from 1
Block's CPU : 1    Evicting CPU : 0    Different Cores!   SPYYY   j : 15
Cross Core Eviction!   255
Block's CPU : 1    Evicting CPU : 0    Different Cores!   SPYYY   j : 14
Cross Core Eviction!   256
Block's CPU : 1    Evicting CPU : 0    Different Cores!   SPYYY   j : 13
Cross Core Eviction!   257
Block's CPU : 1    Evicting CPU : 0    Different Cores!   SPYYY   j : 12
Cross Core Eviction!   258
Breaking Point!    j : 11 Has a LRU : 12
Evicting from 1
Evicting from 1
Evicting from 1
Evicting from 1
Block's CPU : 1    Evicting CPU : 0    Different Cores!   SPYYY   j : 15
Cross Core Eviction!   259
Block's CPU : 1    Evicting CPU : 0    Different Cores!   SPYYY   j : 14
Cross Core Eviction!   260
Block's CPU : 1    Evicting CPU : 0    Different Cores!   SPYYY   j : 13
Cross Core Eviction!   261
Block's CPU : 0    Evicting CPU : 0    Same Core!    SAMEEE   j : 12
Evicting from 0
Evicting from 0
Evicting from 0
Evicting from 0
Block's CPU : 1    Evicting CPU : 0    Different Cores!   SPYYY   j : 15
Cross Core Eviction!   262
Block's CPU : 1    Evicting CPU : 0    Different Cores!   SPYYY   j : 14
Cross Core Eviction!   263
Block's CPU : 1    Evicting CPU : 0    Different Cores!   SPYYY   j : 13
Cross Core Eviction!   264
Block's CPU : 0    Evicting CPU : 0    Same Core!    SAMEEE   j : 12
Evicting from 0
Evicting from 0
Evicting from 0
Evicting from 0
Block's CPU : 1    Evicting CPU : 0    Different Cores!   SPYYY   j : 15
Cross Core Eviction!   265
Block's CPU : 1    Evicting CPU : 0    Different Cores!   SPYYY   j : 14
Cross Core Eviction!   266
Block's CPU : 0    Evicting CPU : 0    Same Core!    SAMEEE   j : 13
Evicting from 0
Evicting from 0
Evicting from 0
Evicting from 0
Block's CPU : 0    Evicting CPU : 0    Same Core!    SAMEEE   j : 15
Evicting from 0
Evicting from 0
BACK HITS : 1
Evicting from 0
Evicting from 0
Block's CPU : 1    Evicting CPU : 1    Same Core!    SAMEEE   j : 15
Evicting from 1
Evicting from 1
Evicting from 1
Evicting from 1
Block's CPU : 1    Evicting CPU : 0    Different Cores!   SPYYY   j : 15
Cross Core Eviction!   267
Block's CPU : 1    Evicting CPU : 0    Different Cores!   SPYYY   j : 14
Cross Core Eviction!   268
Block's CPU : 0    Evicting CPU : 0    Same Core!    SAMEEE   j : 13
Evicting from 0
BACK HITS : 1
Evicting from 0
Evicting from 0
Evicting from 0
Block's CPU : 1    Evicting CPU : 0    Different Cores!   SPYYY   j : 15
Cross Core Eviction!   269
Block's CPU : 1    Evicting CPU : 0    Different Cores!   SPYYY   j : 14
Cross Core Eviction!   270
Block's CPU : 1    Evicting CPU : 0    Different Cores!   SPYYY   j : 13
Cross Core Eviction!   271
Block's CPU : 1    Evicting CPU : 0    Different Cores!   SPYYY   j : 12
Cross Core Eviction!   272
Breaking Point!    j : 11 Has a LRU : 12
Evicting from 1
Evicting from 1
Evicting from 1
Evicting from 1
Block's CPU : 1    Evicting CPU : 0    Different Cores!   SPYYY   j : 15
Cross Core Eviction!   273
Block's CPU : 1    Evicting CPU : 0    Different Cores!   SPYYY   j : 14
Cross Core Eviction!   274
Block's CPU : 1    Evicting CPU : 0    Different Cores!   SPYYY   j : 13
Cross Core Eviction!   275
Block's CPU : 0    Evicting CPU : 0    Same Core!    SAMEEE   j : 12
Evicting from 0
Evicting from 0
Evicting from 0
Evicting from 0
Block's CPU : 1    Evicting CPU : 0    Different Cores!   SPYYY   j : 15
Cross Core Eviction!   276
Block's CPU : 1    Evicting CPU : 0    Different Cores!   SPYYY   j : 14
Cross Core Eviction!   277
Block's CPU : 0    Evicting CPU : 0    Same Core!    SAMEEE   j : 13
Evicting from 0
Evicting from 0
Evicting from 0
Evicting from 0
Block's CPU : 1    Evicting CPU : 0    Different Cores!   SPYYY   j : 15
Cross Core Eviction!   278
Block's CPU : 1    Evicting CPU : 0    Different Cores!   SPYYY   j : 14
Cross Core Eviction!   279
Block's CPU : 0    Evicting CPU : 0    Same Core!    SAMEEE   j : 13
Evicting from 0
Evicting from 0
Evicting from 0
Evicting from 0
Block's CPU : 1    Evicting CPU : 1    Same Core!    SAMEEE   j : 15
Evicting from 1
Evicting from 1
Evicting from 1
Evicting from 1
Block's CPU : 0    Evicting CPU : 0    Same Core!    SAMEEE   j : 15
Evicting from 0
Evicting from 0
Evicting from 0
Evicting from 0
Block's CPU : 1    Evicting CPU : 1    Same Core!    SAMEEE   j : 15
Evicting from 1
Evicting from 1
Evicting from 1
Evicting from 1
Block's CPU : 1    Evicting CPU : 1    Same Core!    SAMEEE   j : 15
Evicting from 1
Evicting from 1
Evicting from 1
Evicting from 1
Block's CPU : 0    Evicting CPU : 1    Different Cores!   SPYYY   j : 15
Cross Core Eviction!   280
Block's CPU : 0    Evicting CPU : 1    Different Cores!   SPYYY   j : 14
Cross Core Eviction!   281
Block's CPU : 1    Evicting CPU : 1    Same Core!    SAMEEE   j : 13
Evicting from 1
Evicting from 1
Evicting from 1
Evicting from 1
Block's CPU : 1    Evicting CPU : 1    Same Core!    SAMEEE   j : 15
Evicting from 1
Evicting from 1
Evicting from 1
Evicting from 1
Block's CPU : 0    Evicting CPU : 1    Different Cores!   SPYYY   j : 15
Cross Core Eviction!   282
Block's CPU : 1    Evicting CPU : 1    Same Core!    SAMEEE   j : 14
Evicting from 1
Evicting from 1
Evicting from 1
Evicting from 1
Block's CPU : 1    Evicting CPU : 0    Different Cores!   SPYYY   j : 15
Cross Core Eviction!   283
Block's CPU : 1    Evicting CPU : 0    Different Cores!   SPYYY   j : 14
Cross Core Eviction!   284
Block's CPU : 1    Evicting CPU : 0    Different Cores!   SPYYY   j : 13
Cross Core Eviction!   285
Block's CPU : 1    Evicting CPU : 0    Different Cores!   SPYYY   j : 12
Cross Core Eviction!   286
Breaking Point!    j : 11 Has a LRU : 12
Evicting from 1
Evicting from 1
Evicting from 1
Evicting from 1
Block's CPU : 0    Evicting CPU : 1    Different Cores!   SPYYY   j : 15
Cross Core Eviction!   287
Block's CPU : 0    Evicting CPU : 1    Different Cores!   SPYYY   j : 14
Cross Core Eviction!   288
Block's CPU : 0    Evicting CPU : 1    Different Cores!   SPYYY   j : 13
Cross Core Eviction!   289
Block's CPU : 0    Evicting CPU : 1    Different Cores!   SPYYY   j : 12
Cross Core Eviction!   290
Breaking Point!    j : 11 Has a LRU : 12
Evicting from 0
Evicting from 0
Evicting from 0
Evicting from 0
Block's CPU : 1    Evicting CPU : 0    Different Cores!   SPYYY   j : 15
Cross Core Eviction!   291
Block's CPU : 1    Evicting CPU : 0    Different Cores!   SPYYY   j : 14
Cross Core Eviction!   292
Block's CPU : 1    Evicting CPU : 0    Different Cores!   SPYYY   j : 13
Cross Core Eviction!   293
Block's CPU : 0    Evicting CPU : 0    Same Core!    SAMEEE   j : 12
Evicting from 0
Evicting from 0
Evicting from 0
Evicting from 0
Block's CPU : 1    Evicting CPU : 1    Same Core!    SAMEEE   j : 15
Evicting from 1
Evicting from 1
Evicting from 1
Evicting from 1
Block's CPU : 0    Evicting CPU : 0    Same Core!    SAMEEE   j : 15
Evicting from 0
Evicting from 0
Evicting from 0
Evicting from 0
Block's CPU : 1    Evicting CPU : 1    Same Core!    SAMEEE   j : 15
Evicting from 1
Evicting from 1
Evicting from 1
Evicting from 1
Block's CPU : 1    Evicting CPU : 0    Different Cores!   SPYYY   j : 15
Cross Core Eviction!   294
Block's CPU : 1    Evicting CPU : 0    Different Cores!   SPYYY   j : 14
Cross Core Eviction!   295
Block's CPU : 1    Evicting CPU : 0    Different Cores!   SPYYY   j : 13
Cross Core Eviction!   296
Block's CPU : 1    Evicting CPU : 0    Different Cores!   SPYYY   j : 12
Cross Core Eviction!   297
Breaking Point!    j : 11 Has a LRU : 12
Evicting from 1
Evicting from 1
Evicting from 1
Evicting from 1
Block's CPU : 1    Evicting CPU : 0    Different Cores!   SPYYY   j : 15
Cross Core Eviction!   298
Block's CPU : 1    Evicting CPU : 0    Different Cores!   SPYYY   j : 14
Cross Core Eviction!   299
Block's CPU : 1    Evicting CPU : 0    Different Cores!   SPYYY   j : 13
Cross Core Eviction!   300
Block's CPU : 1    Evicting CPU : 0    Different Cores!   SPYYY   j : 12
Cross Core Eviction!   301
Breaking Point!    j : 11 Has a LRU : 12
Evicting from 1
Evicting from 1
Evicting from 1
Evicting from 1
Block's CPU : 0    Evicting CPU : 1    Different Cores!   SPYYY   j : 15
Cross Core Eviction!   302
Block's CPU : 1    Evicting CPU : 1    Same Core!    SAMEEE   j : 14
Evicting from 1
Evicting from 1
Evicting from 1
Evicting from 1
Block's CPU : 1    Evicting CPU : 1    Same Core!    SAMEEE   j : 15
Evicting from 1
Evicting from 1
Evicting from 1
Evicting from 1
Block's CPU : 0    Evicting CPU : 0    Same Core!    SAMEEE   j : 15
Evicting from 0
Evicting from 0
BACK HITS : 2
Evicting from 0
Evicting from 0
Block's CPU : 1    Evicting CPU : 0    Different Cores!   SPYYY   j : 15
Cross Core Eviction!   303
Block's CPU : 1    Evicting CPU : 0    Different Cores!   SPYYY   j : 14
Cross Core Eviction!   304
Block's CPU : 1    Evicting CPU : 0    Different Cores!   SPYYY   j : 13
Cross Core Eviction!   305
Block's CPU : 0    Evicting CPU : 0    Same Core!    SAMEEE   j : 12
Evicting from 0
Evicting from 0
BACK HITS : 3
Evicting from 0
Evicting from 0
Block's CPU : 1    Evicting CPU : 0    Different Cores!   SPYYY   j : 15
Cross Core Eviction!   306
Block's CPU : 0    Evicting CPU : 0    Same Core!    SAMEEE   j : 14
Evicting from 0
Evicting from 0
Evicting from 0
Evicting from 0
Block's CPU : 1    Evicting CPU : 0    Different Cores!   SPYYY   j : 15
Cross Core Eviction!   307
Block's CPU : 0    Evicting CPU : 0    Same Core!    SAMEEE   j : 14
Evicting from 0
Evicting from 0
BACK HITS : 4
Evicting from 0
Evicting from 0
Block's CPU : 0    Evicting CPU : 1    Different Cores!   SPYYY   j : 15
Cross Core Eviction!   308
Block's CPU : 0    Evicting CPU : 1    Different Cores!   SPYYY   j : 14
Cross Core Eviction!   309
Block's CPU : 0    Evicting CPU : 1    Different Cores!   SPYYY   j : 13
Cross Core Eviction!   310
Block's CPU : 0    Evicting CPU : 1    Different Cores!   SPYYY   j : 12
Cross Core Eviction!   311
Breaking Point!    j : 11 Has a LRU : 12
Evicting from 0
Evicting from 0
Evicting from 0
Evicting from 0
Block's CPU : 0    Evicting CPU : 1    Different Cores!   SPYYY   j : 15
Cross Core Eviction!   312
Block's CPU : 1    Evicting CPU : 1    Same Core!    SAMEEE   j : 14
Evicting from 1
Evicting from 1
Evicting from 1
Evicting from 1
Block's CPU : 0    Evicting CPU : 0    Same Core!    SAMEEE   j : 15
Evicting from 0
Evicting from 0
BACK HITS : 5
Evicting from 0
Evicting from 0
Block's CPU : 1    Evicting CPU : 1    Same Core!    SAMEEE   j : 15
Evicting from 1
Evicting from 1
Evicting from 1
Evicting from 1
Block's CPU : 1    Evicting CPU : 0    Different Cores!   SPYYY   j : 15
Cross Core Eviction!   313
Block's CPU : 0    Evicting CPU : 0    Same Core!    SAMEEE   j : 14
Evicting from 0
Evicting from 0
BACK HITS : 6
Evicting from 0
Evicting from 0
Block's CPU : 1    Evicting CPU : 1    Same Core!    SAMEEE   j : 15
Evicting from 1
Evicting from 1
Evicting from 1
Evicting from 1
Block's CPU : 1    Evicting CPU : 1    Same Core!    SAMEEE   j : 15
Evicting from 1
Evicting from 1
Evicting from 1
Evicting from 1
Block's CPU : 1    Evicting CPU : 1    Same Core!    SAMEEE   j : 15
Evicting from 1
Evicting from 1
Evicting from 1
Evicting from 1
Block's CPU : 1    Evicting CPU : 0    Different Cores!   SPYYY   j : 15
Cross Core Eviction!   314
Block's CPU : 1    Evicting CPU : 0    Different Cores!   SPYYY   j : 14
Cross Core Eviction!   315
Block's CPU : 1    Evicting CPU : 0    Different Cores!   SPYYY   j : 13
Cross Core Eviction!   316
Block's CPU : 1    Evicting CPU : 0    Different Cores!   SPYYY   j : 12
Cross Core Eviction!   317
Breaking Point!    j : 11 Has a LRU : 12
Evicting from 1
Evicting from 1
Evicting from 1
Evicting from 1
Block's CPU : 1    Evicting CPU : 1    Same Core!    SAMEEE   j : 15
Evicting from 1
Evicting from 1
Evicting from 1
Evicting from 1
Block's CPU : 1    Evicting CPU : 1    Same Core!    SAMEEE   j : 15
Evicting from 1
Evicting from 1
Evicting from 1
Evicting from 1
Block's CPU : 0    Evicting CPU : 1    Different Cores!   SPYYY   j : 15
Cross Core Eviction!   318
Block's CPU : 1    Evicting CPU : 1    Same Core!    SAMEEE   j : 14
Evicting from 1
Evicting from 1
Evicting from 1
Evicting from 1
Block's CPU : 0    Evicting CPU : 0    Same Core!    SAMEEE   j : 15
Evicting from 0
Evicting from 0
Evicting from 0
Evicting from 0
Block's CPU : 0    Evicting CPU : 0    Same Core!    SAMEEE   j : 15
Evicting from 0
Evicting from 0
Evicting from 0
Evicting from 0
Block's CPU : 1    Evicting CPU : 1    Same Core!    SAMEEE   j : 15
Evicting from 1
Evicting from 1
Evicting from 1
Evicting from 1
Block's CPU : 1    Evicting CPU : 1    Same Core!    SAMEEE   j : 15
Evicting from 1
Evicting from 1
Evicting from 1
Evicting from 1
Block's CPU : 1    Evicting CPU : 1    Same Core!    SAMEEE   j : 15
Evicting from 1
Evicting from 1
Evicting from 1
Evicting from 1
Block's CPU : 1    Evicting CPU : 1    Same Core!    SAMEEE   j : 15
Evicting from 1
Evicting from 1
Evicting from 1
Evicting from 1
Block's CPU : 1    Evicting CPU : 0    Different Cores!   SPYYY   j : 15
Cross Core Eviction!   319
Block's CPU : 1    Evicting CPU : 0    Different Cores!   SPYYY   j : 14
Cross Core Eviction!   320
Block's CPU : 0    Evicting CPU : 0    Same Core!    SAMEEE   j : 13
Evicting from 0
Evicting from 0
Evicting from 0
Evicting from 0
Block's CPU : 1    Evicting CPU : 1    Same Core!    SAMEEE   j : 15
Evicting from 1
Evicting from 1
Evicting from 1
Evicting from 1
Block's CPU : 1    Evicting CPU : 0    Different Cores!   SPYYY   j : 15
Cross Core Eviction!   321
Block's CPU : 0    Evicting CPU : 0    Same Core!    SAMEEE   j : 14
Evicting from 0
Evicting from 0
Evicting from 0
Evicting from 0
Block's CPU : 1    Evicting CPU : 1    Same Core!    SAMEEE   j : 15
Evicting from 1
Evicting from 1
Evicting from 1
Evicting from 1
Block's CPU : 1    Evicting CPU : 1    Same Core!    SAMEEE   j : 15
Evicting from 1
Evicting from 1
Evicting from 1
Evicting from 1
Block's CPU : 1    Evicting CPU : 0    Different Cores!   SPYYY   j : 15
Cross Core Eviction!   322
Block's CPU : 1    Evicting CPU : 0    Different Cores!   SPYYY   j : 14
Cross Core Eviction!   323
Block's CPU : 1    Evicting CPU : 0    Different Cores!   SPYYY   j : 13
Cross Core Eviction!   324
Block's CPU : 1    Evicting CPU : 0    Different Cores!   SPYYY   j : 12
Cross Core Eviction!   325
Breaking Point!    j : 11 Has a LRU : 12
Evicting from 1
Evicting from 1
Evicting from 1
Evicting from 1
Block's CPU : 1    Evicting CPU : 1    Same Core!    SAMEEE   j : 15
Evicting from 1
Evicting from 1
Evicting from 1
Evicting from 1
Block's CPU : 0    Evicting CPU : 0    Same Core!    SAMEEE   j : 15
Evicting from 0
Evicting from 0
Evicting from 0
Evicting from 0
Block's CPU : 1    Evicting CPU : 1    Same Core!    SAMEEE   j : 15
Evicting from 1
Evicting from 1
Evicting from 1
Evicting from 1
Block's CPU : 0    Evicting CPU : 0    Same Core!    SAMEEE   j : 15
Evicting from 0
Evicting from 0
Evicting from 0
Evicting from 0
Block's CPU : 0    Evicting CPU : 0    Same Core!    SAMEEE   j : 15
Evicting from 0
Evicting from 0
Evicting from 0
Evicting from 0
Block's CPU : 0    Evicting CPU : 1    Different Cores!   SPYYY   j : 15
Cross Core Eviction!   326
Block's CPU : 1    Evicting CPU : 1    Same Core!    SAMEEE   j : 14
Evicting from 1
Evicting from 1
Evicting from 1
Evicting from 1
Block's CPU : 1    Evicting CPU : 0    Different Cores!   SPYYY   j : 15
Cross Core Eviction!   327
Block's CPU : 0    Evicting CPU : 0    Same Core!    SAMEEE   j : 14
Evicting from 0
Evicting from 0
Evicting from 0
Evicting from 0
Block's CPU : 1    Evicting CPU : 1    Same Core!    SAMEEE   j : 15
Evicting from 1
Evicting from 1
Evicting from 1
Evicting from 1
Block's CPU : 1    Evicting CPU : 1    Same Core!    SAMEEE   j : 15
Evicting from 1
Evicting from 1
Evicting from 1
Evicting from 1
Block's CPU : 1    Evicting CPU : 1    Same Core!    SAMEEE   j : 15
Evicting from 1
Evicting from 1
Evicting from 1
Evicting from 1
Block's CPU : 1    Evicting CPU : 1    Same Core!    SAMEEE   j : 15
Evicting from 1
Evicting from 1
Evicting from 1
Evicting from 1
Block's CPU : 0    Evicting CPU : 0    Same Core!    SAMEEE   j : 15
Evicting from 0
Evicting from 0
Evicting from 0
Evicting from 0
Block's CPU : 1    Evicting CPU : 1    Same Core!    SAMEEE   j : 15
Evicting from 1
Evicting from 1
Evicting from 1
Evicting from 1
Block's CPU : 0    Evicting CPU : 0    Same Core!    SAMEEE   j : 15
Evicting from 0
Evicting from 0
Evicting from 0
Evicting from 0
Block's CPU : 1    Evicting CPU : 1    Same Core!    SAMEEE   j : 15
Evicting from 1
Evicting from 1
Evicting from 1
Evicting from 1
Block's CPU : 0    Evicting CPU : 0    Same Core!    SAMEEE   j : 15
Evicting from 0
Evicting from 0
Evicting from 0
Evicting from 0
Block's CPU : 1    Evicting CPU : 1    Same Core!    SAMEEE   j : 15
Evicting from 1
Evicting from 1
Evicting from 1
Evicting from 1
Block's CPU : 0    Evicting CPU : 0    Same Core!    SAMEEE   j : 15
Evicting from 0
Evicting from 0
Evicting from 0
Evicting from 0
Block's CPU : 1    Evicting CPU : 0    Different Cores!   SPYYY   j : 15
Cross Core Eviction!   328
Block's CPU : 1    Evicting CPU : 0    Different Cores!   SPYYY   j : 14
Cross Core Eviction!   329
Block's CPU : 1    Evicting CPU : 0    Different Cores!   SPYYY   j : 13
Cross Core Eviction!   330
Block's CPU : 0    Evicting CPU : 0    Same Core!    SAMEEE   j : 12
Evicting from 0
Evicting from 0
Evicting from 0
Evicting from 0
Block's CPU : 0    Evicting CPU : 1    Different Cores!   SPYYY   j : 15
Cross Core Eviction!   331
Block's CPU : 0    Evicting CPU : 1    Different Cores!   SPYYY   j : 14
Cross Core Eviction!   332
Block's CPU : 1    Evicting CPU : 1    Same Core!    SAMEEE   j : 13
Evicting from 1
Evicting from 1
Evicting from 1
Evicting from 1
Block's CPU : 1    Evicting CPU : 0    Different Cores!   SPYYY   j : 15
Cross Core Eviction!   333
Block's CPU : 0    Evicting CPU : 0    Same Core!    SAMEEE   j : 14
Evicting from 0
Evicting from 0
Evicting from 0
Evicting from 0
Block's CPU : 1    Evicting CPU : 0    Different Cores!   SPYYY   j : 15
Cross Core Eviction!   334
Block's CPU : 0    Evicting CPU : 0    Same Core!    SAMEEE   j : 14
Evicting from 0
Evicting from 0
Evicting from 0
Evicting from 0
Block's CPU : 0    Evicting CPU : 0    Same Core!    SAMEEE   j : 15
Evicting from 0
Evicting from 0
Evicting from 0
Evicting from 0
Block's CPU : 1    Evicting CPU : 1    Same Core!    SAMEEE   j : 15
Evicting from 1
Evicting from 1
Evicting from 1
Evicting from 1
Block's CPU : 1    Evicting CPU : 0    Different Cores!   SPYYY   j : 15
Cross Core Eviction!   335
Block's CPU : 0    Evicting CPU : 0    Same Core!    SAMEEE   j : 14
Evicting from 0
Evicting from 0
Evicting from 0
Evicting from 0
Block's CPU : 1    Evicting CPU : 0    Different Cores!   SPYYY   j : 15
Cross Core Eviction!   336
Block's CPU : 0    Evicting CPU : 0    Same Core!    SAMEEE   j : 14
Evicting from 0
Evicting from 0
Evicting from 0
Evicting from 0
Block's CPU : 1    Evicting CPU : 1    Same Core!    SAMEEE   j : 15
Evicting from 1
Evicting from 1
Evicting from 1
Evicting from 1
Block's CPU : 1    Evicting CPU : 0    Different Cores!   SPYYY   j : 15
Cross Core Eviction!   337
Block's CPU : 0    Evicting CPU : 0    Same Core!    SAMEEE   j : 14
Evicting from 0
Evicting from 0
Evicting from 0
Evicting from 0
Block's CPU : 1    Evicting CPU : 1    Same Core!    SAMEEE   j : 15
Evicting from 1
Evicting from 1
Evicting from 1
Evicting from 1
[...]
Evicting from 1
Evicting from 1
Block's CPU : 1    Evicting CPU : 0    Different Cores!   SPYYY   j : 15
Cross Core Eviction!   771
Block's CPU : 0    Evicting CPU : 0    Same Core!    SAMEEE   j : 14
Evicting from 0
Evicting from 0
Evicting from 0
Evicting from 0
Block's CPU : 0    Evicting CPU : 1    Different Cores!   SPYYY   j : 15
Cross Core Eviction!   772
Block's CPU : 0    Evicting CPU : 1    Different Cores!   SPYYY   j : 14
Cross Core Eviction!   773
Block's CPU : 0    Evicting CPU : 1    Different Cores!   SPYYY   j : 13
Cross Core Eviction!   774
Block's CPU : 1    Evicting CPU : 1    Same Core!    SAMEEE   j : 12
Evicting from 1
Evicting from 1
Evicting from 1
Evicting from 1
Block's CPU : 1    Evicting CPU : 0    Different Cores!   SPYYY   j : 15
Cross Core Eviction!   775
Block's CPU : 0    Evicting CPU : 0    Same Core!    SAMEEE   j : 14
Evicting from 0
Evicting from 0
Evicting from 0
Evicting from 0
Block's CPU : 1    Evicting CPU : 1    Same Core!    SAMEEE   j : 15
Evicting from 1
Evicting from 1
Evicting from 1
Evicting from 1
Block's CPU : 1    Evicting CPU : 1    Same Core!    SAMEEE   j : 15
Evicting from 1
Evicting from 1
Evicting from 1
Evicting from 1
Block's CPU : 0    Evicting CPU : 1    Different Cores!   SPYYY   j : 15
Cross Core Eviction!   776
Block's CPU : 0    Evicting CPU : 1    Different Cores!   SPYYY   j : 14
Cross Core Eviction!   777
Block's CPU : 0    Evicting CPU : 1    Different Cores!   SPYYY   j : 13
Cross Core Eviction!   778
Block's CPU : 0    Evicting CPU : 1    Different Cores!   SPYYY   j : 12
Cross Core Eviction!   779
Breaking Point!    j : 11 Has a LRU : 12
Evicting from 0
Evicting from 0
Evicting from 0
Evicting from 0
Block's CPU : 0    Evicting CPU : 0    Same Core!    SAMEEE   j : 15
Evicting from 0
Evicting from 0
Evicting from 0
Evicting from 0
Block's CPU : 1    Evicting CPU : 1    Same Core!    SAMEEE   j : 15
Evicting from 1
Evicting from 1
Evicting from 1
Evicting from 1
Block's CPU : 0    Evicting CPU : 0    Same Core!    SAMEEE   j : 15
Evicting from 0
Evicting from 0
Evicting from 0
Evicting from 0
Block's CPU : 1    Evicting CPU : 1    Same Core!    SAMEEE   j : 15
Evicting from 1
Evicting from 1
Evicting from 1
Evicting from 1
Block's CPU : 0    Evicting CPU : 1    Different Cores!   SPYYY   j : 15
Cross Core Eviction!   780
Block's CPU : 1    Evicting CPU : 1    Same Core!    SAMEEE   j : 14
Evicting from 1
Evicting from 1
Evicting from 1
Evicting from 1
Block's CPU : 1    Evicting CPU : 0    Different Cores!   SPYYY   j : 15
Cross Core Eviction!   781
Block's CPU : 0    Evicting CPU : 0    Same Core!    SAMEEE   j : 14
Evicting from 0
Evicting from 0
Evicting from 0
Evicting from 0
Block's CPU : 0    Evicting CPU : 1    Different Cores!   SPYYY   j : 15
Cross Core Eviction!   782
Block's CPU : 1    Evicting CPU : 1    Same Core!    SAMEEE   j : 14
Evicting from 1
Evicting from 1
Evicting from 1
Evicting from 1
Block's CPU : 1    Evicting CPU : 0    Different Cores!   SPYYY   j : 15
Cross Core Eviction!   783
Block's CPU : 1    Evicting CPU : 0    Different Cores!   SPYYY   j : 14
Cross Core Eviction!   784
Block's CPU : 0    Evicting CPU : 0    Same Core!    SAMEEE   j : 13
Evicting from 0
Evicting from 0
BACK HITS : 9
Evicting from 0
Evicting from 0
Block's CPU : 1    Evicting CPU : 0    Different Cores!   SPYYY   j : 15
Cross Core Eviction!   785
Block's CPU : 0    Evicting CPU : 0    Same Core!    SAMEEE   j : 14
Evicting from 0
Evicting from 0
Evicting from 0
Evicting from 0
Block's CPU : 0    Evicting CPU : 1    Different Cores!   SPYYY   j : 15
Cross Core Eviction!   786
Block's CPU : 0    Evicting CPU : 1    Different Cores!   SPYYY   j : 14
Cross Core Eviction!   787
Block's CPU : 1    Evicting CPU : 1    Same Core!    SAMEEE   j : 13
Evicting from 1
Evicting from 1
Evicting from 1
Evicting from 1
Block's CPU : 0    Evicting CPU : 0    Same Core!    SAMEEE   j : 15
Evicting from 0
Evicting from 0
Evicting from 0
Evicting from 0
Block's CPU : 0    Evicting CPU : 1    Different Cores!   SPYYY   j : 15
Cross Core Eviction!   788
Block's CPU : 1    Evicting CPU : 1    Same Core!    SAMEEE   j : 14
Evicting from 1
Evicting from 1
Evicting from 1
Evicting from 1
Block's CPU : 0    Evicting CPU : 0    Same Core!    SAMEEE   j : 15
Evicting from 0
Evicting from 0
Evicting from 0
Evicting from 0
Block's CPU : 0    Evicting CPU : 0    Same Core!    SAMEEE   j : 15
Evicting from 0
Evicting from 0
Evicting from 0
Evicting from 0
Block's CPU : 0    Evicting CPU : 0    Same Core!    SAMEEE   j : 15
Evicting from 0
Evicting from 0
Evicting from 0
Evicting from 0
Block's CPU : 1    Evicting CPU : 1    Same Core!    SAMEEE   j : 15
Evicting from 1
Evicting from 1
Evicting from 1
Evicting from 1
Block's CPU : 0    Evicting CPU : 0    Same Core!    SAMEEE   j : 15
Evicting from 0
Evicting from 0
Evicting from 0
Evicting from 0
Block's CPU : 0    Evicting CPU : 0    Same Core!    SAMEEE   j : 15
Evicting from 0
Evicting from 0
Evicting from 0
Evicting from 0
Block's CPU : 0    Evicting CPU : 1    Different Cores!   SPYYY   j : 15
Cross Core Eviction!   789
Block's CPU : 1    Evicting CPU : 1    Same Core!    SAMEEE   j : 14
Evicting from 1
Evicting from 1
Evicting from 1
Evicting from 1
Block's CPU : 0    Evicting CPU : 1    Different Cores!   SPYYY   j : 15
Cross Core Eviction!   790
Block's CPU : 1    Evicting CPU : 1    Same Core!    SAMEEE   j : 14
Evicting from 1
Evicting from 1
Evicting from 1
Evicting from 1
Block's CPU : 0    Evicting CPU : 1    Different Cores!   SPYYY   j : 15
Cross Core Eviction!   791
Block's CPU : 0    Evicting CPU : 1    Different Cores!   SPYYY   j : 14
Cross Core Eviction!   792
Block's CPU : 1    Evicting CPU : 1    Same Core!    SAMEEE   j : 13
Evicting from 1
Evicting from 1
Evicting from 1
Evicting from 1
Block's CPU : 0    Evicting CPU : 1    Different Cores!   SPYYY   j : 15
Cross Core Eviction!   793
Block's CPU : 1    Evicting CPU : 1    Same Core!    SAMEEE   j : 14
Evicting from 1
Evicting from 1
Evicting from 1
Evicting from 1
Block's CPU : 0    Evicting CPU : 0    Same Core!    SAMEEE   j : 15
Evicting from 0
Evicting from 0
Evicting from 0
Evicting from 0
Block's CPU : 1    Evicting CPU : 0    Different Cores!   SPYYY   j : 15
Cross Core Eviction!   794
Block's CPU : 0    Evicting CPU : 0    Same Core!    SAMEEE   j : 14
Evicting from 0
Evicting from 0
Evicting from 0
Evicting from 0
Block's CPU : 0    Evicting CPU : 0    Same Core!    SAMEEE   j : 15
Evicting from 0
Evicting from 0
Evicting from 0
Evicting from 0
Block's CPU : 1    Evicting CPU : 1    Same Core!    SAMEEE   j : 15
Evicting from 1
Evicting from 1
Evicting from 1
Evicting from 1
Block's CPU : 1    Evicting CPU : 1    Same Core!    SAMEEE   j : 15
Evicting from 1
Evicting from 1
Evicting from 1
Evicting from 1
Block's CPU : 1    Evicting CPU : 0    Different Cores!   SPYYY   j : 15
Cross Core Eviction!   795
Block's CPU : 0    Evicting CPU : 0    Same Core!    SAMEEE   j : 14
Evicting from 0
Evicting from 0
Evicting from 0
Evicting from 0
Block's CPU : 1    Evicting CPU : 0    Different Cores!   SPYYY   j : 15
Cross Core Eviction!   796
Block's CPU : 1    Evicting CPU : 0    Different Cores!   SPYYY   j : 14
Cross Core Eviction!   797
Block's CPU : 0    Evicting CPU : 0    Same Core!    SAMEEE   j : 13
Evicting from 0
Evicting from 0
Evicting from 0
Evicting from 0
Block's CPU : 0    Evicting CPU : 1    Different Cores!   SPYYY   j : 15
Cross Core Eviction!   798
Block's CPU : 1    Evicting CPU : 1    Same Core!    SAMEEE   j : 14
Evicting from 1
Evicting from 1
Evicting from 1
Evicting from 1
Block's CPU : 1    Evicting CPU : 1    Same Core!    SAMEEE   j : 15
Evicting from 1
Evicting from 1
Evicting from 1
Evicting from 1
Block's CPU : 0    Evicting CPU : 0    Same Core!    SAMEEE   j : 15
Evicting from 0
Evicting from 0
Evicting from 0
Evicting from 0
Block's CPU : 1    Evicting CPU : 0    Different Cores!   SPYYY   j : 15
Cross Core Eviction!   799
Block's CPU : 1    Evicting CPU : 0    Different Cores!   SPYYY   j : 14
Cross Core Eviction!   800
Block's CPU : 0    Evicting CPU : 0    Same Core!    SAMEEE   j : 13
Evicting from 0
Evicting from 0
Evicting from 0
Evicting from 0
Block's CPU : 1    Evicting CPU : 1    Same Core!    SAMEEE   j : 15
Evicting from 1
Evicting from 1
Evicting from 1
Evicting from 1
Block's CPU : 0    Evicting CPU : 0    Same Core!    SAMEEE   j : 15
Evicting from 0
Evicting from 0
Evicting from 0
Evicting from 0
Block's CPU : 1    Evicting CPU : 0    Different Cores!   SPYYY   j : 15
Cross Core Eviction!   801
Block's CPU : 0    Evicting CPU : 0    Same Core!    SAMEEE   j : 14
Evicting from 0
Evicting from 0
Evicting from 0
Evicting from 0
Block's CPU : 0    Evicting CPU : 0    Same Core!    SAMEEE   j : 15
Evicting from 0
Evicting from 0
Evicting from 0
Evicting from 0
Block's CPU : 0    Evicting CPU : 1    Different Cores!   SPYYY   j : 15
Cross Core Eviction!   802
Block's CPU : 0    Evicting CPU : 1    Different Cores!   SPYYY   j : 14
Cross Core Eviction!   803
Block's CPU : 0    Evicting CPU : 1    Different Cores!   SPYYY   j : 13
Cross Core Eviction!   804
Block's CPU : 0    Evicting CPU : 1    Different Cores!   SPYYY   j : 12
Cross Core Eviction!   805
Breaking Point!    j : 11 Has a LRU : 12
Evicting from 0
Evicting from 0
Evicting from 0
Evicting from 0
Block's CPU : 0    Evicting CPU : 0    Same Core!    SAMEEE   j : 15
Evicting from 0
Evicting from 0
Evicting from 0
Evicting from 0
Block's CPU : 1    Evicting CPU : 0    Different Cores!   SPYYY   j : 15
Cross Core Eviction!   806
Block's CPU : 0    Evicting CPU : 0    Same Core!    SAMEEE   j : 14
Evicting from 0
Evicting from 0
Evicting from 0
Evicting from 0
Block's CPU : 1    Evicting CPU : 1    Same Core!    SAMEEE   j : 15
Evicting from 1
Evicting from 1
Evicting from 1
Evicting from 1
Block's CPU : 0    Evicting CPU : 0    Same Core!    SAMEEE   j : 15
Evicting from 0
Evicting from 0
Evicting from 0
Evicting from 0
Block's CPU : 1    Evicting CPU : 0    Different Cores!   SPYYY   j : 15
Cross Core Eviction!   807
Block's CPU : 1    Evicting CPU : 0    Different Cores!   SPYYY   j : 14
Cross Core Eviction!   808
Block's CPU : 1    Evicting CPU : 0    Different Cores!   SPYYY   j : 13
Cross Core Eviction!   809
Block's CPU : 1    Evicting CPU : 0    Different Cores!   SPYYY   j : 12
Cross Core Eviction!   810
Breaking Point!    j : 11 Has a LRU : 12
Evicting from 1
Evicting from 1
Evicting from 1
Evicting from 1
Block's CPU : 0    Evicting CPU : 0    Same Core!    SAMEEE   j : 15
Evicting from 0
Evicting from 0
Evicting from 0
Evicting from 0
Block's CPU : 1    Evicting CPU : 0    Different Cores!   SPYYY   j : 15
Cross Core Eviction!   811
Block's CPU : 1    Evicting CPU : 0    Different Cores!   SPYYY   j : 14
Cross Core Eviction!   812
Block's CPU : 0    Evicting CPU : 0    Same Core!    SAMEEE   j : 13
Evicting from 0
Evicting from 0
Evicting from 0
Evicting from 0
Block's CPU : 0    Evicting CPU : 1    Different Cores!   SPYYY   j : 15
Cross Core Eviction!   813
Block's CPU : 0    Evicting CPU : 1    Different Cores!   SPYYY   j : 14
Cross Core Eviction!   814
Block's CPU : 0    Evicting CPU : 1    Different Cores!   SPYYY   j : 13
Cross Core Eviction!   815
Block's CPU : 1    Evicting CPU : 1    Same Core!    SAMEEE   j : 12
Evicting from 1
Evicting from 1
Evicting from 1
Evicting from 1
Block's CPU : 0    Evicting CPU : 0    Same Core!    SAMEEE   j : 15
Evicting from 0
Evicting from 0
Evicting from 0
Evicting from 0
Block's CPU : 0    Evicting CPU : 0    Same Core!    SAMEEE   j : 15
Evicting from 0
Evicting from 0
Evicting from 0
Evicting from 0
Block's CPU : 1    Evicting CPU : 0    Different Cores!   SPYYY   j : 15
Cross Core Eviction!   816
Block's CPU : 0    Evicting CPU : 0    Same Core!    SAMEEE   j : 14
Evicting from 0
Evicting from 0
Evicting from 0
Evicting from 0
Block's CPU : 0    Evicting CPU : 0    Same Core!    SAMEEE   j : 15
Evicting from 0
Evicting from 0
Evicting from 0
Evicting from 0
Block's CPU : 1    Evicting CPU : 1    Same Core!    SAMEEE   j : 15
Evicting from 1
Evicting from 1
Evicting from 1
Evicting from 1
Finished CPU 1 instructions: 8000001 cycles: 9841261 cumulative IPC: 0.812904 (Simulation time: 0 hr 0 min 41 sec) 
Finished CPU 0 instructions: 8000000 cycles: 9841577 cumulative IPC: 0.812878 (Simulation time: 0 hr 0 min 41 sec) 

CPU 0 Branch Prediction Accuracy: 91.0445% MPKI: 15.0003

CPU 1 Branch Prediction Accuracy: 91.0439% MPKI: 15.0015

ChampSim completed all CPUs

Total Simulation Statistics (not including warmup)

CPU 0 cumulative IPC: 0.812878 instructions: 8000000 cycles: 9841577
L1D TOTAL     ACCESS:    1886056  HIT:    1805620  MISS:      80436
L1D LOAD      ACCESS:    1401099  HIT:    1341230  MISS:      59869
L1D RFO       ACCESS:     484957  HIT:     464390  MISS:      20567
L1D PREFETCH  ACCESS:          0  HIT:          0  MISS:          0
L1D WRITEBACK ACCESS:          0  HIT:          0  MISS:          0
L1I TOTAL     ACCESS:    1637212  HIT:    1637202  MISS:         10
L1I LOAD      ACCESS:    1637212  HIT:    1637202  MISS:         10
L1I RFO       ACCESS:          0  HIT:          0  MISS:          0
L1I PREFETCH  ACCESS:          0  HIT:          0  MISS:          0
L1I WRITEBACK ACCESS:          0  HIT:          0  MISS:          0
L2C TOTAL     ACCESS:     104777  HIT:      54619  MISS:      50158
L2C LOAD      ACCESS:      59879  HIT:      26308  MISS:      33571
L2C RFO       ACCESS:      20566  HIT:       3981  MISS:      16585
L2C PREFETCH  ACCESS:          0  HIT:          0  MISS:          0
L2C WRITEBACK ACCESS:      24332  HIT:      24330  MISS:          2
LLC TOTAL     ACCESS:      70743  HIT:      51584  MISS:      19159
LLC LOAD      ACCESS:      33570  HIT:      21851  MISS:      11719
LLC RFO       ACCESS:      16585  HIT:       9147  MISS:       7438
LLC PREFETCH  ACCESS:          0  HIT:          0  MISS:          0
LLC WRITEBACK ACCESS:      20588  HIT:      20586  MISS:          2

CPU 1 cumulative IPC: 0.812898 instructions: 8000196 cycles: 9841577
L1D TOTAL     ACCESS:    1886191  HIT:    1805753  MISS:      80438
L1D LOAD      ACCESS:    1401146  HIT:    1341277  MISS:      59869
L1D RFO       ACCESS:     485045  HIT:     464476  MISS:      20569
L1D PREFETCH  ACCESS:          0  HIT:          0  MISS:          0
L1D WRITEBACK ACCESS:          0  HIT:          0  MISS:          0
L1I TOTAL     ACCESS:    1637387  HIT:    1637386  MISS:          1
L1I LOAD      ACCESS:    1637387  HIT:    1637386  MISS:          1
L1I RFO       ACCESS:          0  HIT:          0  MISS:          0
L1I PREFETCH  ACCESS:          0  HIT:          0  MISS:          0
L1I WRITEBACK ACCESS:          0  HIT:          0  MISS:          0
L2C TOTAL     ACCESS:     104771  HIT:      54394  MISS:      50377
L2C LOAD      ACCESS:      59870  HIT:      26153  MISS:      33717
L2C RFO       ACCESS:      20568  HIT:       3922  MISS:      16646
L2C PREFETCH  ACCESS:          0  HIT:          0  MISS:          0
L2C WRITEBACK ACCESS:      24333  HIT:      24319  MISS:         14
LLC TOTAL     ACCESS:      70881  HIT:      51719  MISS:      19162
LLC LOAD      ACCESS:      33717  HIT:      21999  MISS:      11718
LLC RFO       ACCESS:      16646  HIT:       9202  MISS:       7444
LLC PREFETCH  ACCESS:          0  HIT:          0  MISS:          0
LLC WRITEBACK ACCESS:      20518  HIT:      20518  MISS:          0

Region of Interest Statistics

CPU 0 cumulative IPC: 0.812878 instructions: 8000000 cycles: 9841577
L1D TOTAL     ACCESS:    1886056  HIT:    1805620  MISS:      80436
L1D LOAD      ACCESS:    1401099  HIT:    1341230  MISS:      59869
L1D RFO       ACCESS:     484957  HIT:     464390  MISS:      20567
L1D PREFETCH  ACCESS:          0  HIT:          0  MISS:          0
L1D WRITEBACK ACCESS:          0  HIT:          0  MISS:          0
L1D PREFETCH  REQUESTED:          0  ISSUED:          0  USEFUL:          0  USELESS:          0
L1D BACK HITS: 0
L1D CROSS CORE: 0
L1D TOTAL REPL: 0
L1I TOTAL     ACCESS:    1637212  HIT:    1637202  MISS:         10
L1I LOAD      ACCESS:    1637212  HIT:    1637202  MISS:         10
L1I RFO       ACCESS:          0  HIT:          0  MISS:          0
L1I PREFETCH  ACCESS:          0  HIT:          0  MISS:          0
L1I WRITEBACK ACCESS:          0  HIT:          0  MISS:          0
L1I PREFETCH  REQUESTED:          0  ISSUED:          0  USEFUL:          0  USELESS:          0
L1I BACK HITS: 9
L1I CROSS CORE: 0
L1I TOTAL REPL: 0
L2C TOTAL     ACCESS:     104777  HIT:      54619  MISS:      50158
L2C LOAD      ACCESS:      59879  HIT:      26308  MISS:      33571
L2C RFO       ACCESS:      20566  HIT:       3981  MISS:      16585
L2C PREFETCH  ACCESS:          0  HIT:          0  MISS:          0
L2C WRITEBACK ACCESS:      24332  HIT:      24330  MISS:          2
L2C PREFETCH  REQUESTED:          0  ISSUED:          0  USEFUL:          0  USELESS:          0
L2C BACK HITS: 3
L2C CROSS CORE: 0
L2C TOTAL REPL: 0
LLC TOTAL     ACCESS:      70743  HIT:      51584  MISS:      19159
LLC LOAD      ACCESS:      33570  HIT:      21851  MISS:      11719
LLC RFO       ACCESS:      16585  HIT:       9147  MISS:       7438
LLC PREFETCH  ACCESS:          0  HIT:          0  MISS:          0
LLC WRITEBACK ACCESS:      20588  HIT:      20586  MISS:          2
LLC PREFETCH  REQUESTED:          0  ISSUED:          0  USEFUL:          0  USELESS:          0
LLC BACK HITS: 0
LLC CROSS CORE: 816
LLC TOTAL REPL: 0
Major fault: 0 Minor fault: 741

CPU 1 cumulative IPC: 0.812904 instructions: 8000001 cycles: 9841261
L1D TOTAL     ACCESS:    1886141  HIT:    1805703  MISS:      80438
L1D LOAD      ACCESS:    1401110  HIT:    1341241  MISS:      59869
L1D RFO       ACCESS:     485031  HIT:     464462  MISS:      20569
L1D PREFETCH  ACCESS:          0  HIT:          0  MISS:          0
L1D WRITEBACK ACCESS:          0  HIT:          0  MISS:          0
L1D PREFETCH  REQUESTED:          0  ISSUED:          0  USEFUL:          0  USELESS:          0
L1D BACK HITS: 0
L1D CROSS CORE: 0
L1D TOTAL REPL: 0
L1I TOTAL     ACCESS:    1637354  HIT:    1637353  MISS:          1
L1I LOAD      ACCESS:    1637354  HIT:    1637353  MISS:          1
L1I RFO       ACCESS:          0  HIT:          0  MISS:          0
L1I PREFETCH  ACCESS:          0  HIT:          0  MISS:          0
L1I WRITEBACK ACCESS:          0  HIT:          0  MISS:          0
L1I PREFETCH  REQUESTED:          0  ISSUED:          0  USEFUL:          0  USELESS:          0
L1I BACK HITS: 0
L1I CROSS CORE: 0
L1I TOTAL REPL: 0
L2C TOTAL     ACCESS:     104771  HIT:      54394  MISS:      50377
L2C LOAD      ACCESS:      59870  HIT:      26153  MISS:      33717
L2C RFO       ACCESS:      20568  HIT:       3922  MISS:      16646
L2C PREFETCH  ACCESS:          0  HIT:          0  MISS:          0
L2C WRITEBACK ACCESS:      24333  HIT:      24319  MISS:         14
L2C PREFETCH  REQUESTED:          0  ISSUED:          0  USEFUL:          0  USELESS:          0
L2C BACK HITS: 0
L2C CROSS CORE: 0
L2C TOTAL REPL: 0
LLC TOTAL     ACCESS:      70881  HIT:      51719  MISS:      19162
LLC LOAD      ACCESS:      33717  HIT:      21999  MISS:      11718
LLC RFO       ACCESS:      16646  HIT:       9202  MISS:       7444
LLC PREFETCH  ACCESS:          0  HIT:          0  MISS:          0
LLC WRITEBACK ACCESS:      20518  HIT:      20518  MISS:          0
LLC PREFETCH  REQUESTED:          0  ISSUED:          0  USEFUL:          0  USELESS:          0
LLC BACK HITS: 0
LLC CROSS CORE: 816
LLC TOTAL REPL: 0
Major fault: 0 Minor fault: 741

DRAM Statistics
 CHANNEL 0
 RQ ROW_BUFFER_HIT:       9975  ROW_BUFFER_MISS:       8746
 DBUS_CONGESTED:       8549
 WQ ROW_BUFFER_HIT:         20  ROW_BUFFER_MISS:        184  FULL:          0

 CHANNEL 1
 RQ ROW_BUFFER_HIT:      10796  ROW_BUFFER_MISS:       8760
 DBUS_CONGESTED:       8549
 WQ ROW_BUFFER_HIT:         58  ROW_BUFFER_MISS:        300  FULL:          0

 AVG_CONGESTED_CYCLE: 11
