
*** ChampSim Multicore Out-of-Order Simulator ***

Warmup Instructions: 1000000
Simulation Instructions: 10000000
Number of CPUs: 2
LLC sets: 4096
LLC ways: 16
Off-chip DRAM Size: 8192 MB Channels: 2 Width: 64-bit Data Rate: 1600 MT/s

CPU 0 runs /home/ubuntu/workspace/ChampSim-inclusive/traces/bzip2_183B.trace.gz
CPU 1 runs /home/ubuntu/workspace/ChampSim-inclusive/traces/gpg_decrypt.trace.gz
CPU 0 Bimodal branch predictor
CPU 1 Bimodal branch predictor
*** Reached end of trace for Core: 1 Repeating trace: /home/ubuntu/workspace/ChampSim-inclusive/traces/gpg_decrypt.trace.gz

Warmup complete CPU 0 instructions: 1064723 cycles: 594510 (Simulation time: 0 hr 0 min 4 sec) 
Warmup complete CPU 1 instructions: 1000004 cycles: 594510 (Simulation time: 0 hr 0 min 4 sec) 

*** Reached end of trace for Core: 1 Repeating trace: /home/ubuntu/workspace/ChampSim-inclusive/traces/gpg_decrypt.trace.gz
*** Reached end of trace for Core: 1 Repeating trace: /home/ubuntu/workspace/ChampSim-inclusive/traces/gpg_decrypt.trace.gz
*** Reached end of trace for Core: 1 Repeating trace: /home/ubuntu/workspace/ChampSim-inclusive/traces/gpg_decrypt.trace.gz
Block's CPU : 0    Evicting CPU : 0    Same Core!    SAMEEE   j : 15
Evicting from 0
Evicting from 0
Evicting from 0
Evicting from 0
*** Reached end of trace for Core: 1 Repeating trace: /home/ubuntu/workspace/ChampSim-inclusive/traces/gpg_decrypt.trace.gz
Block's CPU : 1    Evicting CPU : 0    Different Cores!   SPYYY   j : 15
Cross Core Eviction!   1
Block's CPU : 0    Evicting CPU : 0    Same Core!    SAMEEE   j : 14
Evicting from 0
Evicting from 0
Evicting from 0
Evicting from 0
Block's CPU : 0    Evicting CPU : 0    Same Core!    SAMEEE   j : 15
Evicting from 0
Evicting from 0
BACK HITS : 1
Evicting from 0
Evicting from 0
Block's CPU : 0    Evicting CPU : 0    Same Core!    SAMEEE   j : 15
Evicting from 0
Evicting from 0
Evicting from 0
Evicting from 0
*** Reached end of trace for Core: 1 Repeating trace: /home/ubuntu/workspace/ChampSim-inclusive/traces/gpg_decrypt.trace.gz
Block's CPU : 0    Evicting CPU : 0    Same Core!    SAMEEE   j : 15
Evicting from 0
Evicting from 0
BACK HITS : 2
Evicting from 0
Evicting from 0
Block's CPU : 0    Evicting CPU : 0    Same Core!    SAMEEE   j : 15
Evicting from 0
Evicting from 0
Evicting from 0
Evicting from 0
Block's CPU : 0    Evicting CPU : 0    Same Core!    SAMEEE   j : 15
Evicting from 0
Evicting from 0
Evicting from 0
Evicting from 0
Block's CPU : 0    Evicting CPU : 0    Same Core!    SAMEEE   j : 15
Evicting from 0
Evicting from 0
Evicting from 0
Evicting from 0
Block's CPU : 0    Evicting CPU : 0    Same Core!    SAMEEE   j : 15
Evicting from 0
Evicting from 0
Evicting from 0
Evicting from 0
Block's CPU : 0    Evicting CPU : 0    Same Core!    SAMEEE   j : 15
Evicting from 0
Evicting from 0
Evicting from 0
Evicting from 0
Block's CPU : 0    Evicting CPU : 0    Same Core!    SAMEEE   j : 15
Evicting from 0
Evicting from 0
Evicting from 0
Evicting from 0
Block's CPU : 0    Evicting CPU : 0    Same Core!    SAMEEE   j : 15
Evicting from 0
Evicting from 0
BACK HITS : 3
Evicting from 0
Evicting from 0
Block's CPU : 1    Evicting CPU : 0    Different Cores!   SPYYY   j : 15
Cross Core Eviction!   2
Block's CPU : 1    Evicting CPU : 0    Different Cores!   SPYYY   j : 14
Cross Core Eviction!   3
Block's CPU : 0    Evicting CPU : 0    Same Core!    SAMEEE   j : 13
Evicting from 0
Evicting from 0
Evicting from 0
Evicting from 0
Block's CPU : 0    Evicting CPU : 0    Same Core!    SAMEEE   j : 15
Evicting from 0
Evicting from 0
Evicting from 0
Evicting from 0
Block's CPU : 0    Evicting CPU : 0    Same Core!    SAMEEE   j : 15
Evicting from 0
Evicting from 0
Evicting from 0
Evicting from 0
Block's CPU : 0    Evicting CPU : 0    Same Core!    SAMEEE   j : 15
Evicting from 0
Evicting from 0
Evicting from 0
Evicting from 0
Block's CPU : 0    Evicting CPU : 0    Same Core!    SAMEEE   j : 15
Evicting from 0
Evicting from 0
Evicting from 0
Evicting from 0
Block's CPU : 0    Evicting CPU : 0    Same Core!    SAMEEE   j : 15
Evicting from 0
Evicting from 0
Evicting from 0
Evicting from 0
Block's CPU : 0    Evicting CPU : 0    Same Core!    SAMEEE   j : 15
Evicting from 0
Evicting from 0
Evicting from 0
Evicting from 0
Heartbeat CPU 0 instructions: 10000000 cycles: 11505118 heartbeat IPC: 0.869178 cumulative IPC: 0.818953 (Simulation time: 0 hr 0 min 43 sec) 
*** Reached end of trace for Core: 1 Repeating trace: /home/ubuntu/workspace/ChampSim-inclusive/traces/gpg_decrypt.trace.gz
Block's CPU : 0    Evicting CPU : 0    Same Core!    SAMEEE   j : 15
Evicting from 0
Evicting from 0
BACK HITS : 4
Evicting from 0
Evicting from 0
Block's CPU : 0    Evicting CPU : 0    Same Core!    SAMEEE   j : 15
Evicting from 0
Evicting from 0
Evicting from 0
Evicting from 0
Block's CPU : 0    Evicting CPU : 0    Same Core!    SAMEEE   j : 15
Evicting from 0
Evicting from 0
BACK HITS : 5
Evicting from 0
Evicting from 0
Block's CPU : 0    Evicting CPU : 0    Same Core!    SAMEEE   j : 15
Evicting from 0
Evicting from 0
Evicting from 0
Evicting from 0
Block's CPU : 1    Evicting CPU : 0    Different Cores!   SPYYY   j : 15
Cross Core Eviction!   4
Block's CPU : 1    Evicting CPU : 0    Different Cores!   SPYYY   j : 14
Cross Core Eviction!   5
Block's CPU : 1    Evicting CPU : 0    Different Cores!   SPYYY   j : 13
Cross Core Eviction!   6
Block's CPU : 0    Evicting CPU : 0    Same Core!    SAMEEE   j : 12
Evicting from 0
Evicting from 0
Evicting from 0
Evicting from 0
Block's CPU : 0    Evicting CPU : 0    Same Core!    SAMEEE   j : 15
Evicting from 0
Evicting from 0
BACK HITS : 6
Evicting from 0
Evicting from 0
Block's CPU : 0    Evicting CPU : 0    Same Core!    SAMEEE   j : 15
Evicting from 0
Evicting from 0
Evicting from 0
Evicting from 0
Block's CPU : 0    Evicting CPU : 0    Same Core!    SAMEEE   j : 15
Evicting from 0
Evicting from 0
Evicting from 0
Evicting from 0
Block's CPU : 0    Evicting CPU : 0    Same Core!    SAMEEE   j : 15
Evicting from 0
Evicting from 0
Evicting from 0
Evicting from 0
Block's CPU : 0    Evicting CPU : 0    Same Core!    SAMEEE   j : 15
Evicting from 0
Evicting from 0
BACK HITS : 7
Evicting from 0
Evicting from 0
Block's CPU : 0    Evicting CPU : 0    Same Core!    SAMEEE   j : 15
Evicting from 0
Evicting from 0
Evicting from 0
Evicting from 0
Block's CPU : 0    Evicting CPU : 0    Same Core!    SAMEEE   j : 15
Evicting from 0
Evicting from 0
Evicting from 0
Evicting from 0
Block's CPU : 0    Evicting CPU : 0    Same Core!    SAMEEE   j : 15
Evicting from 0
Evicting from 0
BACK HITS : 8
Evicting from 0
Evicting from 0
Block's CPU : 0    Evicting CPU : 0    Same Core!    SAMEEE   j : 15
Evicting from 0
Evicting from 0
Evicting from 0
Evicting from 0
Block's CPU : 0    Evicting CPU : 0    Same Core!    SAMEEE   j : 15
Evicting from 0
Evicting from 0
Evicting from 0
Evicting from 0
Block's CPU : 0    Evicting CPU : 0    Same Core!    SAMEEE   j : 15
Evicting from 0
Evicting from 0
Evicting from 0
Evicting from 0
Block's CPU : 0    Evicting CPU : 0    Same Core!    SAMEEE   j : 15
Evicting from 0
Evicting from 0
Evicting from 0
Evicting from 0
Block's CPU : 0    Evicting CPU : 0    Same Core!    SAMEEE   j : 15
Evicting from 0
Evicting from 0
Evicting from 0
Evicting from 0
Finished CPU 0 instructions: 10000003 cycles: 12412080 cumulative IPC: 0.805667 (Simulation time: 0 hr 0 min 47 sec) 
Block's CPU : 0    Evicting CPU : 0    Same Core!    SAMEEE   j : 15
Evicting from 0
Evicting from 0
Evicting from 0
Evicting from 0
*** Reached end of trace for Core: 1 Repeating trace: /home/ubuntu/workspace/ChampSim-inclusive/traces/gpg_decrypt.trace.gz
Block's CPU : 0    Evicting CPU : 0    Same Core!    SAMEEE   j : 15
Evicting from 0
Evicting from 0
BACK HITS : 9
Evicting from 0
Evicting from 0
Block's CPU : 0    Evicting CPU : 0    Same Core!    SAMEEE   j : 15
Evicting from 0
Evicting from 0
Evicting from 0
Evicting from 0
Block's CPU : 0    Evicting CPU : 0    Same Core!    SAMEEE   j : 15
Evicting from 0
Evicting from 0
Evicting from 0
Evicting from 0
Block's CPU : 0    Evicting CPU : 0    Same Core!    SAMEEE   j : 15
Evicting from 0
Evicting from 0
Evicting from 0
Evicting from 0
Block's CPU : 1    Evicting CPU : 0    Different Cores!   SPYYY   j : 15
Cross Core Eviction!   7
Block's CPU : 1    Evicting CPU : 0    Different Cores!   SPYYY   j : 14
Cross Core Eviction!   8
Block's CPU : 1    Evicting CPU : 0    Different Cores!   SPYYY   j : 13
Cross Core Eviction!   9
Block's CPU : 0    Evicting CPU : 0    Same Core!    SAMEEE   j : 12
Evicting from 0
Evicting from 0
Evicting from 0
Evicting from 0
Block's CPU : 0    Evicting CPU : 0    Same Core!    SAMEEE   j : 15
Evicting from 0
Evicting from 0
Evicting from 0
Evicting from 0
Block's CPU : 0    Evicting CPU : 0    Same Core!    SAMEEE   j : 15
Evicting from 0
Evicting from 0
Evicting from 0
Evicting from 0
Block's CPU : 0    Evicting CPU : 0    Same Core!    SAMEEE   j : 15
Evicting from 0
Evicting from 0
BACK HITS : 10
Evicting from 0
Evicting from 0
Block's CPU : 1    Evicting CPU : 0    Different Cores!   SPYYY   j : 15
Cross Core Eviction!   10
Block's CPU : 1    Evicting CPU : 0    Different Cores!   SPYYY   j : 14
Cross Core Eviction!   11
Block's CPU : 1    Evicting CPU : 0    Different Cores!   SPYYY   j : 13
Cross Core Eviction!   12
Block's CPU : 0    Evicting CPU : 0    Same Core!    SAMEEE   j : 12
Evicting from 0
Evicting from 0
Evicting from 0
Evicting from 0
Block's CPU : 0    Evicting CPU : 0    Same Core!    SAMEEE   j : 15
Evicting from 0
Evicting from 0
Evicting from 0
Evicting from 0
Block's CPU : 0    Evicting CPU : 0    Same Core!    SAMEEE   j : 15
Evicting from 0
Evicting from 0
Evicting from 0
Evicting from 0
Block's CPU : 0    Evicting CPU : 0    Same Core!    SAMEEE   j : 15
Evicting from 0
Evicting from 0
Evicting from 0
Evicting from 0
Block's CPU : 0    Evicting CPU : 0    Same Core!    SAMEEE   j : 15
Evicting from 0
Evicting from 0
Evicting from 0
Evicting from 0
Block's CPU : 0    Evicting CPU : 0    Same Core!    SAMEEE   j : 15
Evicting from 0
Evicting from 0
Evicting from 0
Evicting from 0
Block's CPU : 0    Evicting CPU : 0    Same Core!    SAMEEE   j : 15
Evicting from 0
Evicting from 0
Evicting from 0
Evicting from 0
Block's CPU : 0    Evicting CPU : 0    Same Core!    SAMEEE   j : 15
Evicting from 0
Evicting from 0
Evicting from 0
Evicting from 0
Block's CPU : 0    Evicting CPU : 0    Same Core!    SAMEEE   j : 15
Evicting from 0
Evicting from 0
BACK HITS : 11
Evicting from 0
Evicting from 0
Block's CPU : 0    Evicting CPU : 0    Same Core!    SAMEEE   j : 15
Evicting from 0
Evicting from 0
Evicting from 0
Evicting from 0
*** Reached end of trace for Core: 1 Repeating trace: /home/ubuntu/workspace/ChampSim-inclusive/traces/gpg_decrypt.trace.gz
Block's CPU : 0    Evicting CPU : 0    Same Core!    SAMEEE   j : 15
Evicting from 0
Evicting from 0
Evicting from 0
Evicting from 0
Block's CPU : 0    Evicting CPU : 0    Same Core!    SAMEEE   j : 15
Evicting from 0
Evicting from 0
Evicting from 0
Evicting from 0
Block's CPU : 0    Evicting CPU : 0    Same Core!    SAMEEE   j : 15
Evicting from 0
Evicting from 0
Evicting from 0
Evicting from 0
Block's CPU : 0    Evicting CPU : 0    Same Core!    SAMEEE   j : 15
Evicting from 0
Evicting from 0
Evicting from 0
Evicting from 0
Block's CPU : 0    Evicting CPU : 0    Same Core!    SAMEEE   j : 15
Evicting from 0
Evicting from 0
Evicting from 0
Evicting from 0
Block's CPU : 0    Evicting CPU : 0    Same Core!    SAMEEE   j : 15
Evicting from 0
Evicting from 0
Evicting from 0
Evicting from 0
Block's CPU : 0    Evicting CPU : 0    Same Core!    SAMEEE   j : 15
Evicting from 0
Evicting from 0
Evicting from 0
Evicting from 0
Block's CPU : 0    Evicting CPU : 0    Same Core!    SAMEEE   j : 15
Evicting from 0
Evicting from 0
BACK HITS : 12
Evicting from 0
Evicting from 0
Block's CPU : 0    Evicting CPU : 0    Same Core!    SAMEEE   j : 15
Evicting from 0
Evicting from 0
Evicting from 0
Evicting from 0
Block's CPU : 1    Evicting CPU : 0    Different Cores!   SPYYY   j : 15
Cross Core Eviction!   13
Block's CPU : 0    Evicting CPU : 0    Same Core!    SAMEEE   j : 14
Evicting from 0
Evicting from 0
Evicting from 0
Evicting from 0
Block's CPU : 0    Evicting CPU : 0    Same Core!    SAMEEE   j : 15
Evicting from 0
Evicting from 0
Evicting from 0
Evicting from 0
Block's CPU : 0    Evicting CPU : 0    Same Core!    SAMEEE   j : 15
Evicting from 0
Evicting from 0
Evicting from 0
Evicting from 0
Block's CPU : 0    Evicting CPU : 0    Same Core!    SAMEEE   j : 15
Evicting from 0
Evicting from 0
Evicting from 0
Evicting from 0
Block's CPU : 0    Evicting CPU : 0    Same Core!    SAMEEE   j : 15
Evicting from 0
Evicting from 0
BACK HITS : 13
Evicting from 0
Evicting from 0
Block's CPU : 0    Evicting CPU : 0    Same Core!    SAMEEE   j : 15
Evicting from 0
Evicting from 0
Evicting from 0
Evicting from 0
Block's CPU : 0    Evicting CPU : 0    Same Core!    SAMEEE   j : 15
Evicting from 0
Evicting from 0
BACK HITS : 14
Evicting from 0
Evicting from 0
Block's CPU : 0    Evicting CPU : 0    Same Core!    SAMEEE   j : 15
Evicting from 0
Evicting from 0
Evicting from 0
Evicting from 0
Block's CPU : 0    Evicting CPU : 0    Same Core!    SAMEEE   j : 15
Evicting from 0
Evicting from 0
Evicting from 0
Evicting from 0
Block's CPU : 0    Evicting CPU : 0    Same Core!    SAMEEE   j : 15
Evicting from 0
Evicting from 0
Evicting from 0
Evicting from 0
Block's CPU : 0    Evicting CPU : 0    Same Core!    SAMEEE   j : 15
Evicting from 0
Evicting from 0
BACK HITS : 15
Evicting from 0
Evicting from 0
Block's CPU : 0    Evicting CPU : 0    Same Core!    SAMEEE   j : 15
Evicting from 0
Evicting from 0
Evicting from 0
Evicting from 0
Block's CPU : 0    Evicting CPU : 0    Same Core!    SAMEEE   j : 15
Evicting from 0
Evicting from 0
Evicting from 0
Evicting from 0
Block's CPU : 0    Evicting CPU : 0    Same Core!    SAMEEE   j : 15
Evicting from 0
Evicting from 0
Evicting from 0
Evicting from 0
Block's CPU : 0    Evicting CPU : 0    Same Core!    SAMEEE   j : 15
Evicting from 0
Evicting from 0
Evicting from 0
Evicting from 0
Block's CPU : 0    Evicting CPU : 0    Same Core!    SAMEEE   j : 15
Evicting from 0
Evicting from 0
Evicting from 0
Evicting from 0
Block's CPU : 0    Evicting CPU : 0    Same Core!    SAMEEE   j : 15
Evicting from 0
Evicting from 0
Evicting from 0
Evicting from 0
Block's CPU : 0    Evicting CPU : 0    Same Core!    SAMEEE   j : 15
Evicting from 0
Evicting from 0
BACK HITS : 16
Evicting from 0
Evicting from 0
Block's CPU : 0    Evicting CPU : 0    Same Core!    SAMEEE   j : 15
Evicting from 0
Evicting from 0
Evicting from 0
Evicting from 0
Block's CPU : 0    Evicting CPU : 0    Same Core!    SAMEEE   j : 15
Evicting from 0
Evicting from 0
Evicting from 0
Evicting from 0
Block's CPU : 0    Evicting CPU : 0    Same Core!    SAMEEE   j : 15
Evicting from 0
Evicting from 0
Evicting from 0
Evicting from 0
Block's CPU : 0    Evicting CPU : 0    Same Core!    SAMEEE   j : 15
Evicting from 0
Evicting from 0
Evicting from 0
Evicting from 0
Block's CPU : 0    Evicting CPU : 0    Same Core!    SAMEEE   j : 15
Evicting from 0
Evicting from 0
Evicting from 0
Evicting from 0
Block's CPU : 1    Evicting CPU : 0    Different Cores!   SPYYY   j : 15
Cross Core Eviction!   14
Block's CPU : 0    Evicting CPU : 0    Same Core!    SAMEEE   j : 14
Evicting from 0
Evicting from 0
Evicting from 0
Evicting from 0
Block's CPU : 0    Evicting CPU : 0    Same Core!    SAMEEE   j : 15
Evicting from 0
Evicting from 0
Evicting from 0
Evicting from 0
Block's CPU : 0    Evicting CPU : 0    Same Core!    SAMEEE   j : 15
Evicting from 0
Evicting from 0
Evicting from 0
Evicting from 0
Block's CPU : 0    Evicting CPU : 0    Same Core!    SAMEEE   j : 15
Evicting from 0
Evicting from 0
Evicting from 0
Evicting from 0
Block's CPU : 0    Evicting CPU : 0    Same Core!    SAMEEE   j : 15
Evicting from 0
Evicting from 0
Evicting from 0
Evicting from 0
Block's CPU : 0    Evicting CPU : 0    Same Core!    SAMEEE   j : 15
Evicting from 0
Evicting from 0
Evicting from 0
Evicting from 0
Block's CPU : 0    Evicting CPU : 0    Same Core!    SAMEEE   j : 15
Evicting from 0
Evicting from 0
Evicting from 0
Evicting from 0
Block's CPU : 0    Evicting CPU : 0    Same Core!    SAMEEE   j : 15
Evicting from 0
Evicting from 0
Evicting from 0
Evicting from 0
Block's CPU : 0    Evicting CPU : 0    Same Core!    SAMEEE   j : 15
Evicting from 0
Evicting from 0
Evicting from 0
Evicting from 0
Block's CPU : 0    Evicting CPU : 0    Same Core!    SAMEEE   j : 15
Evicting from 0
Evicting from 0
Evicting from 0
Evicting from 0
Block's CPU : 0    Evicting CPU : 0    Same Core!    SAMEEE   j : 15
Evicting from 0
Evicting from 0
Evicting from 0
Evicting from 0
Block's CPU : 0    Evicting CPU : 0    Same Core!    SAMEEE   j : 15
Evicting from 0
Evicting from 0
Evicting from 0
Evicting from 0
Block's CPU : 0    Evicting CPU : 0    Same Core!    SAMEEE   j : 15
Evicting from 0
Evicting from 0
Evicting from 0
Evicting from 0
Block's CPU : 0    Evicting CPU : 0    Same Core!    SAMEEE   j : 15
Evicting from 0
Evicting from 0
Evicting from 0
Evicting from 0
*** Reached end of trace for Core: 1 Repeating trace: /home/ubuntu/workspace/ChampSim-inclusive/traces/gpg_decrypt.trace.gz
Heartbeat CPU 1 instructions: 10000003 cycles: 17415748 heartbeat IPC: 0.574193 cumulative IPC: 0.535038 (Simulation time: 0 hr 1 min 3 sec) 
Block's CPU : 0    Evicting CPU : 0    Same Core!    SAMEEE   j : 15
Evicting from 0
Evicting from 0
Evicting from 0
Evicting from 0
*** Reached end of trace for Core: 1 Repeating trace: /home/ubuntu/workspace/ChampSim-inclusive/traces/gpg_decrypt.trace.gz
Finished CPU 1 instructions: 10000001 cycles: 18689040 cumulative IPC: 0.535073 (Simulation time: 0 hr 1 min 10 sec) 

CPU 0 Branch Prediction Accuracy: 90.7497% MPKI: 15.1776

CPU 1 Branch Prediction Accuracy: 94.2961% MPKI: 8.4203

ChampSim completed all CPUs

Total Simulation Statistics (not including warmup)

CPU 0 cumulative IPC: 0.835132 instructions: 15607818 cycles: 18689040
L1D TOTAL     ACCESS:    3647958  HIT:    3467116  MISS:     180842
L1D LOAD      ACCESS:    2678283  HIT:    2538442  MISS:     139841
L1D RFO       ACCESS:     969675  HIT:     928674  MISS:      41001
L1D PREFETCH  ACCESS:          0  HIT:          0  MISS:          0
L1D WRITEBACK ACCESS:          0  HIT:          0  MISS:          0
L1I TOTAL     ACCESS:    3202052  HIT:    3202034  MISS:         18
L1I LOAD      ACCESS:    3202052  HIT:    3202034  MISS:         18
L1I RFO       ACCESS:          0  HIT:          0  MISS:          0
L1I PREFETCH  ACCESS:          0  HIT:          0  MISS:          0
L1I WRITEBACK ACCESS:          0  HIT:          0  MISS:          0
L2C TOTAL     ACCESS:     230083  HIT:     134384  MISS:      95699
L2C LOAD      ACCESS:     139857  HIT:      77683  MISS:      62174
L2C RFO       ACCESS:      40998  HIT:       7501  MISS:      33497
L2C PREFETCH  ACCESS:          0  HIT:          0  MISS:          0
L2C WRITEBACK ACCESS:      49228  HIT:      49200  MISS:         28
LLC TOTAL     ACCESS:     138260  HIT:     110523  MISS:      27737
LLC LOAD      ACCESS:      62174  HIT:      45997  MISS:      16177
LLC RFO       ACCESS:      33497  HIT:      21937  MISS:      11560
LLC PREFETCH  ACCESS:          0  HIT:          0  MISS:          0
LLC WRITEBACK ACCESS:      42589  HIT:      42589  MISS:          0

CPU 1 cumulative IPC: 0.535073 instructions: 10000001 cycles: 18689040
L1D TOTAL     ACCESS:    2898831  HIT:    2840118  MISS:      58713
L1D LOAD      ACCESS:    1308808  HIT:    1269258  MISS:      39550
L1D RFO       ACCESS:    1590023  HIT:    1570860  MISS:      19163
L1D PREFETCH  ACCESS:          0  HIT:          0  MISS:          0
L1D WRITEBACK ACCESS:          0  HIT:          0  MISS:          0
L1I TOTAL     ACCESS:    2963428  HIT:    2927250  MISS:      36178
L1I LOAD      ACCESS:    2963428  HIT:    2927250  MISS:      36178
L1I RFO       ACCESS:          0  HIT:          0  MISS:          0
L1I PREFETCH  ACCESS:          0  HIT:          0  MISS:          0
L1I WRITEBACK ACCESS:          0  HIT:          0  MISS:          0
L2C TOTAL     ACCESS:     117623  HIT:      54574  MISS:      63049
L2C LOAD      ACCESS:      75728  HIT:      27712  MISS:      48016
L2C RFO       ACCESS:      19163  HIT:       4270  MISS:      14893
L2C PREFETCH  ACCESS:          0  HIT:          0  MISS:          0
L2C WRITEBACK ACCESS:      22732  HIT:      22592  MISS:        140
LLC TOTAL     ACCESS:      79881  HIT:      79881  MISS:          0
LLC LOAD      ACCESS:      48016  HIT:      48016  MISS:          0
LLC RFO       ACCESS:      14893  HIT:      14893  MISS:          0
LLC PREFETCH  ACCESS:          0  HIT:          0  MISS:          0
LLC WRITEBACK ACCESS:      16972  HIT:      16972  MISS:          0

Region of Interest Statistics

CPU 0 cumulative IPC: 0.805667 instructions: 10000003 cycles: 12412080
L1D TOTAL     ACCESS:    2373066  HIT:    2266534  MISS:     106532
L1D LOAD      ACCESS:    1745549  HIT:    1667292  MISS:      78257
L1D RFO       ACCESS:     627517  HIT:     599242  MISS:      28275
L1D PREFETCH  ACCESS:          0  HIT:          0  MISS:          0
L1D WRITEBACK ACCESS:          0  HIT:          0  MISS:          0
L1D PREFETCH  REQUESTED:          0  ISSUED:          0  USEFUL:          0  USELESS:          0
L1D BACK HITS: 0
L1D CROSS CORE: 0
L1D TOTAL REPL: 0
L1I TOTAL     ACCESS:    2058988  HIT:    2058980  MISS:          8
L1I LOAD      ACCESS:    2058988  HIT:    2058980  MISS:          8
L1I RFO       ACCESS:          0  HIT:          0  MISS:          0
L1I PREFETCH  ACCESS:          0  HIT:          0  MISS:          0
L1I WRITEBACK ACCESS:          0  HIT:          0  MISS:          0
L1I PREFETCH  REQUESTED:          0  ISSUED:          0  USEFUL:          0  USELESS:          0
L1I BACK HITS: 16
L1I CROSS CORE: 0
L1I TOTAL REPL: 0
L2C TOTAL     ACCESS:     139631  HIT:      76583  MISS:      63048
L2C LOAD      ACCESS:      78264  HIT:      38048  MISS:      40216
L2C RFO       ACCESS:      28273  HIT:       5459  MISS:      22814
L2C PREFETCH  ACCESS:          0  HIT:          0  MISS:          0
L2C WRITEBACK ACCESS:      33094  HIT:      33076  MISS:         18
L2C PREFETCH  REQUESTED:          0  ISSUED:          0  USEFUL:          0  USELESS:          0
L2C BACK HITS: 0
L2C CROSS CORE: 0
L2C TOTAL REPL: 0
LLC TOTAL     ACCESS:      91110  HIT:      68321  MISS:      22789
LLC LOAD      ACCESS:      40216  HIT:      26377  MISS:      13839
LLC RFO       ACCESS:      22814  HIT:      13864  MISS:       8950
LLC PREFETCH  ACCESS:          0  HIT:          0  MISS:          0
LLC WRITEBACK ACCESS:      28080  HIT:      28080  MISS:          0
LLC PREFETCH  REQUESTED:          0  ISSUED:          0  USEFUL:          0  USELESS:          0
LLC BACK HITS: 0
LLC CROSS CORE: 14
LLC TOTAL REPL: 0
Major fault: 0 Minor fault: 788

CPU 1 cumulative IPC: 0.535073 instructions: 10000001 cycles: 18689040
L1D TOTAL     ACCESS:    2898831  HIT:    2840118  MISS:      58713
L1D LOAD      ACCESS:    1308808  HIT:    1269258  MISS:      39550
L1D RFO       ACCESS:    1590023  HIT:    1570860  MISS:      19163
L1D PREFETCH  ACCESS:          0  HIT:          0  MISS:          0
L1D WRITEBACK ACCESS:          0  HIT:          0  MISS:          0
L1D PREFETCH  REQUESTED:          0  ISSUED:          0  USEFUL:          0  USELESS:          0
L1D BACK HITS: 0
L1D CROSS CORE: 0
L1D TOTAL REPL: 0
L1I TOTAL     ACCESS:    2963428  HIT:    2927250  MISS:      36178
L1I LOAD      ACCESS:    2963428  HIT:    2927250  MISS:      36178
L1I RFO       ACCESS:          0  HIT:          0  MISS:          0
L1I PREFETCH  ACCESS:          0  HIT:          0  MISS:          0
L1I WRITEBACK ACCESS:          0  HIT:          0  MISS:          0
L1I PREFETCH  REQUESTED:          0  ISSUED:          0  USEFUL:          0  USELESS:          0
L1I BACK HITS: 0
L1I CROSS CORE: 0
L1I TOTAL REPL: 0
L2C TOTAL     ACCESS:     117623  HIT:      54574  MISS:      63049
L2C LOAD      ACCESS:      75728  HIT:      27712  MISS:      48016
L2C RFO       ACCESS:      19163  HIT:       4270  MISS:      14893
L2C PREFETCH  ACCESS:          0  HIT:          0  MISS:          0
L2C WRITEBACK ACCESS:      22732  HIT:      22592  MISS:        140
L2C PREFETCH  REQUESTED:          0  ISSUED:          0  USEFUL:          0  USELESS:          0
L2C BACK HITS: 0
L2C CROSS CORE: 0
L2C TOTAL REPL: 0
LLC TOTAL     ACCESS:      79881  HIT:      79881  MISS:          0
LLC LOAD      ACCESS:      48016  HIT:      48016  MISS:          0
LLC RFO       ACCESS:      14893  HIT:      14893  MISS:          0
LLC PREFETCH  ACCESS:          0  HIT:          0  MISS:          0
LLC WRITEBACK ACCESS:      16972  HIT:      16972  MISS:          0
LLC PREFETCH  REQUESTED:          0  ISSUED:          0  USEFUL:          0  USELESS:          0
LLC BACK HITS: 0
LLC CROSS CORE: 14
LLC TOTAL REPL: 0
Major fault: 0 Minor fault: 321

DRAM Statistics
 CHANNEL 0
 RQ ROW_BUFFER_HIT:       4852  ROW_BUFFER_MISS:       8849
 DBUS_CONGESTED:       3964
 WQ ROW_BUFFER_HIT:          0  ROW_BUFFER_MISS:          0  FULL:          0

 CHANNEL 1
 RQ ROW_BUFFER_HIT:       5239  ROW_BUFFER_MISS:       8779
 DBUS_CONGESTED:       3964
 WQ ROW_BUFFER_HIT:          0  ROW_BUFFER_MISS:          0  FULL:          0

 AVG_CONGESTED_CYCLE: 10
