
*** ChampSim Multicore Out-of-Order Simulator ***

Warmup Instructions: 0
Simulation Instructions: 100000000
Number of CPUs: 2
LLC sets: 4096
LLC ways: 16
Off-chip DRAM Size: 8192 MB Channels: 2 Width: 64-bit Data Rate: 1600 MT/s

CPU 0 runs /home/ubuntu/workspace/ChampSim-inclusive/traces/gpg_decrypt.trace.gz
CPU 1 runs /home/ubuntu/workspace/ChampSim-inclusive/traces/attack10.trace.gz
CPU 0 Bimodal branch predictor
CPU 1 Bimodal branch predictor

Warmup complete CPU 0 instructions: 1 cycles: 9 (Simulation time: 0 hr 0 min 0 sec) 
Warmup complete CPU 1 instructions: 1 cycles: 9 (Simulation time: 0 hr 0 min 0 sec) 

*** Reached end of trace for Core: 1 Repeating trace: /home/ubuntu/workspace/ChampSim-inclusive/traces/attack10.trace.gz
*** Reached end of trace for Core: 0 Repeating trace: /home/ubuntu/workspace/ChampSim-inclusive/traces/gpg_decrypt.trace.gz
*** Reached end of trace for Core: 1 Repeating trace: /home/ubuntu/workspace/ChampSim-inclusive/traces/attack10.trace.gz
*** Reached end of trace for Core: 0 Repeating trace: /home/ubuntu/workspace/ChampSim-inclusive/traces/gpg_decrypt.trace.gz
*** Reached end of trace for Core: 1 Repeating trace: /home/ubuntu/workspace/ChampSim-inclusive/traces/attack10.trace.gz
*** Reached end of trace for Core: 1 Repeating trace: /home/ubuntu/workspace/ChampSim-inclusive/traces/attack10.trace.gz
*** Reached end of trace for Core: 0 Repeating trace: /home/ubuntu/workspace/ChampSim-inclusive/traces/gpg_decrypt.trace.gz
*** Reached end of trace for Core: 1 Repeating trace: /home/ubuntu/workspace/ChampSim-inclusive/traces/attack10.trace.gz
*** Reached end of trace for Core: 0 Repeating trace: /home/ubuntu/workspace/ChampSim-inclusive/traces/gpg_decrypt.trace.gz
*** Reached end of trace for Core: 1 Repeating trace: /home/ubuntu/workspace/ChampSim-inclusive/traces/attack10.trace.gz
*** Reached end of trace for Core: 1 Repeating trace: /home/ubuntu/workspace/ChampSim-inclusive/traces/attack10.trace.gz
*** Reached end of trace for Core: 0 Repeating trace: /home/ubuntu/workspace/ChampSim-inclusive/traces/gpg_decrypt.trace.gz
*** Reached end of trace for Core: 1 Repeating trace: /home/ubuntu/workspace/ChampSim-inclusive/traces/attack10.trace.gz
*** Reached end of trace for Core: 0 Repeating trace: /home/ubuntu/workspace/ChampSim-inclusive/traces/gpg_decrypt.trace.gz
*** Reached end of trace for Core: 1 Repeating trace: /home/ubuntu/workspace/ChampSim-inclusive/traces/attack10.trace.gz
*** Reached end of trace for Core: 0 Repeating trace: /home/ubuntu/workspace/ChampSim-inclusive/traces/gpg_decrypt.trace.gz
*** Reached end of trace for Core: 1 Repeating trace: /home/ubuntu/workspace/ChampSim-inclusive/traces/attack10.trace.gz
Heartbeat CPU 1 instructions: 10000001 cycles: 13684299 heartbeat IPC: 0.730765 cumulative IPC: 0.730765 (Simulation time: 0 hr 1 min 26 sec) 
*** Reached end of trace for Core: 1 Repeating trace: /home/ubuntu/workspace/ChampSim-inclusive/traces/attack10.trace.gz
*** Reached end of trace for Core: 0 Repeating trace: /home/ubuntu/workspace/ChampSim-inclusive/traces/gpg_decrypt.trace.gz
*** Reached end of trace for Core: 1 Repeating trace: /home/ubuntu/workspace/ChampSim-inclusive/traces/attack10.trace.gz
*** Reached end of trace for Core: 0 Repeating trace: /home/ubuntu/workspace/ChampSim-inclusive/traces/gpg_decrypt.trace.gz
*** Reached end of trace for Core: 1 Repeating trace: /home/ubuntu/workspace/ChampSim-inclusive/traces/attack10.trace.gz
*** Reached end of trace for Core: 1 Repeating trace: /home/ubuntu/workspace/ChampSim-inclusive/traces/attack10.trace.gz
*** Reached end of trace for Core: 0 Repeating trace: /home/ubuntu/workspace/ChampSim-inclusive/traces/gpg_decrypt.trace.gz
Heartbeat CPU 0 instructions: 10000003 cycles: 19139504 heartbeat IPC: 0.52248 cumulative IPC: 0.52248 (Simulation time: 0 hr 2 min 35 sec) 
*** Reached end of trace for Core: 1 Repeating trace: /home/ubuntu/workspace/ChampSim-inclusive/traces/attack10.trace.gz
*** Reached end of trace for Core: 0 Repeating trace: /home/ubuntu/workspace/ChampSim-inclusive/traces/gpg_decrypt.trace.gz
*** Reached end of trace for Core: 1 Repeating trace: /home/ubuntu/workspace/ChampSim-inclusive/traces/attack10.trace.gz
*** Reached end of trace for Core: 0 Repeating trace: /home/ubuntu/workspace/ChampSim-inclusive/traces/gpg_decrypt.trace.gz
*** Reached end of trace for Core: 1 Repeating trace: /home/ubuntu/workspace/ChampSim-inclusive/traces/attack10.trace.gz
*** Reached end of trace for Core: 1 Repeating trace: /home/ubuntu/workspace/ChampSim-inclusive/traces/attack10.trace.gz
*** Reached end of trace for Core: 0 Repeating trace: /home/ubuntu/workspace/ChampSim-inclusive/traces/gpg_decrypt.trace.gz
*** Reached end of trace for Core: 1 Repeating trace: /home/ubuntu/workspace/ChampSim-inclusive/traces/attack10.trace.gz
*** Reached end of trace for Core: 0 Repeating trace: /home/ubuntu/workspace/ChampSim-inclusive/traces/gpg_decrypt.trace.gz
*** Reached end of trace for Core: 1 Repeating trace: /home/ubuntu/workspace/ChampSim-inclusive/traces/attack10.trace.gz
Heartbeat CPU 1 instructions: 20000000 cycles: 26973792 heartbeat IPC: 0.752474 cumulative IPC: 0.741461 (Simulation time: 0 hr 4 min 10 sec) 
*** Reached end of trace for Core: 1 Repeating trace: /home/ubuntu/workspace/ChampSim-inclusive/traces/attack10.trace.gz
*** Reached end of trace for Core: 0 Repeating trace: /home/ubuntu/workspace/ChampSim-inclusive/traces/gpg_decrypt.trace.gz
*** Reached end of trace for Core: 1 Repeating trace: /home/ubuntu/workspace/ChampSim-inclusive/traces/attack10.trace.gz
*** Reached end of trace for Core: 0 Repeating trace: /home/ubuntu/workspace/ChampSim-inclusive/traces/gpg_decrypt.trace.gz
*** Reached end of trace for Core: 1 Repeating trace: /home/ubuntu/workspace/ChampSim-inclusive/traces/attack10.trace.gz
*** Reached end of trace for Core: 0 Repeating trace: /home/ubuntu/workspace/ChampSim-inclusive/traces/gpg_decrypt.trace.gz
*** Reached end of trace for Core: 1 Repeating trace: /home/ubuntu/workspace/ChampSim-inclusive/traces/attack10.trace.gz
*** Reached end of trace for Core: 1 Repeating trace: /home/ubuntu/workspace/ChampSim-inclusive/traces/attack10.trace.gz
*** Reached end of trace for Core: 0 Repeating trace: /home/ubuntu/workspace/ChampSim-inclusive/traces/gpg_decrypt.trace.gz
*** Reached end of trace for Core: 1 Repeating trace: /home/ubuntu/workspace/ChampSim-inclusive/traces/attack10.trace.gz
*** Reached end of trace for Core: 0 Repeating trace: /home/ubuntu/workspace/ChampSim-inclusive/traces/gpg_decrypt.trace.gz
*** Reached end of trace for Core: 1 Repeating trace: /home/ubuntu/workspace/ChampSim-inclusive/traces/attack10.trace.gz
*** Reached end of trace for Core: 1 Repeating trace: /home/ubuntu/workspace/ChampSim-inclusive/traces/attack10.trace.gz
*** Reached end of trace for Core: 0 Repeating trace: /home/ubuntu/workspace/ChampSim-inclusive/traces/gpg_decrypt.trace.gz
Heartbeat CPU 0 instructions: 20000000 cycles: 37821169 heartbeat IPC: 0.535284 cumulative IPC: 0.528804 (Simulation time: 0 hr 6 min 27 sec) 
*** Reached end of trace for Core: 1 Repeating trace: /home/ubuntu/workspace/ChampSim-inclusive/traces/attack10.trace.gz
*** Reached end of trace for Core: 0 Repeating trace: /home/ubuntu/workspace/ChampSim-inclusive/traces/gpg_decrypt.trace.gz
*** Reached end of trace for Core: 1 Repeating trace: /home/ubuntu/workspace/ChampSim-inclusive/traces/attack10.trace.gz
Heartbeat CPU 1 instructions: 30000001 cycles: 40264457 heartbeat IPC: 0.752408 cumulative IPC: 0.745074 (Simulation time: 0 hr 6 min 59 sec) 
*** Reached end of trace for Core: 0 Repeating trace: /home/ubuntu/workspace/ChampSim-inclusive/traces/gpg_decrypt.trace.gz
*** Reached end of trace for Core: 1 Repeating trace: /home/ubuntu/workspace/ChampSim-inclusive/traces/attack10.trace.gz
*** Reached end of trace for Core: 1 Repeating trace: /home/ubuntu/workspace/ChampSim-inclusive/traces/attack10.trace.gz
*** Reached end of trace for Core: 0 Repeating trace: /home/ubuntu/workspace/ChampSim-inclusive/traces/gpg_decrypt.trace.gz
*** Reached end of trace for Core: 1 Repeating trace: /home/ubuntu/workspace/ChampSim-inclusive/traces/attack10.trace.gz
*** Reached end of trace for Core: 0 Repeating trace: /home/ubuntu/workspace/ChampSim-inclusive/traces/gpg_decrypt.trace.gz
*** Reached end of trace for Core: 1 Repeating trace: /home/ubuntu/workspace/ChampSim-inclusive/traces/attack10.trace.gz
*** Reached end of trace for Core: 1 Repeating trace: /home/ubuntu/workspace/ChampSim-inclusive/traces/attack10.trace.gz
*** Reached end of trace for Core: 0 Repeating trace: /home/ubuntu/workspace/ChampSim-inclusive/traces/gpg_decrypt.trace.gz
*** Reached end of trace for Core: 1 Repeating trace: /home/ubuntu/workspace/ChampSim-inclusive/traces/attack10.trace.gz
*** Reached end of trace for Core: 0 Repeating trace: /home/ubuntu/workspace/ChampSim-inclusive/traces/gpg_decrypt.trace.gz
*** Reached end of trace for Core: 1 Repeating trace: /home/ubuntu/workspace/ChampSim-inclusive/traces/attack10.trace.gz
*** Reached end of trace for Core: 1 Repeating trace: /home/ubuntu/workspace/ChampSim-inclusive/traces/attack10.trace.gz
*** Reached end of trace for Core: 0 Repeating trace: /home/ubuntu/workspace/ChampSim-inclusive/traces/gpg_decrypt.trace.gz
                                                                                                                                                                                                                                                                                                                                                                                                                                                                                                                                                                                                                                                                                                                                                                                                                                                                                                                                                                                                                                                                                                                                                                                                                                                                                                                                                                                                                                                                                                                                                                                                                                                                                                                                                                                                                                                                                                                                                                                                                                                                                                                                                                                                                                                                                                                                                                                                                                                                                                                                                                                                                                                                                                                                                                                                                                                                                                                                                                                                                                                                                                                                                                                                                                                                                                                                                                                                                                                                                                                                                                                                                                                                                                                                                                                                                                                                                                                                                                                                                                                                                                                                                                                                                                                                                                                                                                                                                                                                                                                                                                                                                                                                                                                                                                                                                                                                                                                                                                                                                                                                                                                                                                                                                                                                                                                                                                                                                                                                                                                                                                                                                                                                                                                                                                                                                                                                                                                                                                                                                                                                                                                                                                                                                                                                                                                                                                                                                                                                                                                                                                                                                                                                                                                                                                                                                                                                                                                                                                                                                                                                                                                                                                                                                                                                                                                                                                                                                                                                                                                                                                                                                                                                                                                                                                                                                                                                                                                                                                                                                                                                                                                                                                                                                                                                                                                                                                                                                                                                                                                                                                                                                                                                                                                                                                                                                                                                                                                                                                                                                                                                                                                                                                                                                                                                                                                                                                                                                                                                                                                                                                                                                                                                                                                                                                                                                                                                                                                                                                                                                                                                                                                                                                                                                                                                                                                                                                                                                                                                                                                                                                                                                                                                                                                                                                                                                                                                                                                                                                                                                                                                                                                                                                                                                                                                                                                                                                                                                                                                                                                                                                                                                                                                                                                                                                                                                                                                                                                                                                                                                                                                                                                                                                                                                                                                                                                                                                                                                                                                                                                                                                                                                                                                                                                                                                                                                                                                                                                                                                                                                                                                                                                                                                                                                                                                                                                                                                                                                                                                                                                                                                                                                                                                                                                                                                                                                                                                                                                                                                                                                                                                                                                                                                                                                                                                                                                                                                                                                                                                                                                                                                                                                                                                                                                                                                                                                                                                                                                                                                                                                                                                                                                                                                                                                                                                                                                                                                                                                                                                                                                                                                                                                                                                                                                                                                                                                                                                                                                                                                                                                                                                                                                                                                                                                                                                                                                                                                                                                                                                                                                                                                                                                                                                                                                                                                                                                                                                                                                                                                                                                                                                                                                                                                                                                                                                                                                                                                                                                                                                                                                                                                                                                                                                                                                                                                                                                                                                                                                                                                                                                                                                                                                                                                                                                                                                                                                                                                                                                                                                                                                                                                                                                                                                                                                                                                                                                                                                                                                                                                                                                                                                                                                                                                                                                                                                                                                                                                                                                                                                                                                                                                                                                                                                                                                                                                                                                                                                                                                                                                                                                                                                                                                                                                                                                                                                                                                                                                                                                                                                                                                                                                                                                                                                                                                                                                                                                                                                                                                                                                                                                                                                                                                                                                                                                                                                                                                                                                                                                                                                                                                                                                                                                                                                                                                                                                                                                                                                                                                                                                                                                                                                                                                                                                                                                                                                                                                                                                                                                                                                                                                                                                                                                                                                                                                                                                                                                                                                                                                                                                                                                                                                                                                                                                                    *** Reached end of trace for Core: 1 Repeating trace: /home/ubuntu/workspace/ChampSim-inclusive/traces/attack10.trace.gz
*** Reached end of trace for Core: 0 Repeating trace: /home/ubuntu/workspace/ChampSim-inclusive/traces/gpg_decrypt.trace.gz
*** Reached end of trace for Core: 1 Repeating trace: /home/ubuntu/workspace/ChampSim-inclusive/traces/attack10.trace.gz
*** Reached end of trace for Core: 0 Repeating trace: /home/ubuntu/workspace/ChampSim-inclusive/traces/gpg_decrypt.trace.gz
*** Reached end of trace for Core: 1 Repeating trace: /home/ubuntu/workspace/ChampSim-inclusive/traces/attack10.trace.gz
*** Reached end of trace for Core: 1 Repeating trace: /home/ubuntu/workspace/ChampSim-inclusive/traces/attack10.trace.gz
*** Reached end of trace for Core: 0 Repeating trace: /home/ubuntu/workspace/ChampSim-inclusive/traces/gpg_decrypt.trace.gz
*** Reached end of trace for Core: 1 Repeating trace: /home/ubuntu/workspace/ChampSim-inclusive/traces/attack10.trace.gz
*** Reached end of trace for Core: 0 Repeating trace: /home/ubuntu/workspace/ChampSim-inclusive/traces/gpg_decrypt.trace.gz
*** Reached end of trace for Core: 1 Repeating trace: /home/ubuntu/workspace/ChampSim-inclusive/traces/attack10.trace.gz
*** Reached end of trace for Core: 1 Repeating trace: /home/ubuntu/workspace/ChampSim-inclusive/traces/attack10.trace.gz
*** Reached end of trace for Core: 0 Repeating trace: /home/ubuntu/workspace/ChampSim-inclusive/traces/gpg_decrypt.trace.gz
*** Reached end of trace for Core: 1 Repeating trace: /home/ubuntu/workspace/ChampSim-inclusive/traces/attack10.trace.gz
Heartbeat CPU 1 instructions: 140000000 cycles: 186454823 heartbeat IPC: 0.752473 cumulative IPC: 0.750852 (Simulation time: 0 hr 35 min 52 sec) 
*** Reached end of trace for Core: 0 Repeating trace: /home/ubuntu/workspace/ChampSim-inclusive/traces/gpg_decrypt.trace.gz
Heartbeat CPU 0 instructions: 100000000 cycles: 187268713 heartbeat IPC: 0.535284 cumulative IPC: 0.533992 (Simulation time: 0 hr 36 min 2 sec) 
Finished CPU 0 instructions: 100000000 cycles: 187268712 cumulative IPC: 0.533992 (Simulation time: 0 hr 36 min 2 sec) 

CPU 0 Branch Prediction Accuracy: 94.3113% MPKI: 8.3979

CPU 1 Branch Prediction Accuracy: 96.0232% MPKI: 6.29193

ChampSim completed all CPUs

Total Simulation Statistics (not including warmup)

CPU 0 cumulative IPC: 0.533992 instructions: 100000000 cycles: 187268712
L1D TOTAL     ACCESS:   28986902  HIT:   28399764  MISS:     587138
L1D LOAD      ACCESS:   13088936  HIT:   12693434  MISS:     395502
L1D RFO       ACCESS:   15897966  HIT:   15706330  MISS:     191636
L1D PREFETCH  ACCESS:          0  HIT:          0  MISS:          0
L1D WRITEBACK ACCESS:          0  HIT:          0  MISS:          0
L1I TOTAL     ACCESS:   29639594  HIT:   29277791  MISS:     361803
L1I LOAD      ACCESS:   29639594  HIT:   29277791  MISS:     361803
L1I RFO       ACCESS:          0  HIT:          0  MISS:          0
L1I PREFETCH  ACCESS:          0  HIT:          0  MISS:          0
L1I WRITEBACK ACCESS:          0  HIT:          0  MISS:          0
L2C TOTAL     ACCESS:    1175827  HIT:     544626  MISS:     631201
L2C LOAD      ACCESS:     757305  HIT:     277564  MISS:     479741
L2C RFO       ACCESS:     191636  HIT:      40772  MISS:     150864
L2C PREFETCH  ACCESS:          0  HIT:          0  MISS:          0
L2C WRITEBACK ACCESS:     226886  HIT:     226290  MISS:        596
LLC TOTAL     ACCESS:     796123  HIT:     789360  MISS:       6763
LLC LOAD      ACCESS:     479691  HIT:     474599  MISS:       5092
LLC RFO       ACCESS:     150864  HIT:     149193  MISS:       1671
LLC PREFETCH  ACCESS:          0  HIT:          0  MISS:          0
LLC WRITEBACK ACCESS:     165568  HIT:     165568  MISS:          0

CPU 1 cumulative IPC: 0.750722 instructions: 140586727 cycles: 187268712
L1D TOTAL     ACCESS:   33111536  HIT:   32052440  MISS:    1059096
L1D LOAD      ACCESS:   20953870  HIT:   20079398  MISS:     874472
L1D RFO       ACCESS:   12157666  HIT:   11973042  MISS:     184624
L1D PREFETCH  ACCESS:          0  HIT:          0  MISS:          0
L1D WRITEBACK ACCESS:          0  HIT:          0  MISS:          0
L1I TOTAL     ACCESS:   29505604  HIT:   29459546  MISS:      46058
L1I LOAD      ACCESS:   29505604  HIT:   29459546  MISS:      46058
L1I RFO       ACCESS:          0  HIT:          0  MISS:          0
L1I PREFETCH  ACCESS:          0  HIT:          0  MISS:          0
L1I WRITEBACK ACCESS:          0  HIT:          0  MISS:          0
L2C TOTAL     ACCESS:    1304145  HIT:     652294  MISS:     651851
L2C LOAD      ACCESS:     920529  HIT:     382525  MISS:     538004
L2C RFO       ACCESS:     184624  HIT:      73577  MISS:     111047
L2C PREFETCH  ACCESS:          0  HIT:          0  MISS:          0
L2C WRITEBACK ACCESS:     198992  HIT:     196192  MISS:       2800
LLC TOTAL     ACCESS:     771573  HIT:     765657  MISS:       5916
LLC LOAD      ACCESS:     538004  HIT:     533120  MISS:       4884
LLC RFO       ACCESS:     111047  HIT:     110015  MISS:       1032
LLC PREFETCH  ACCESS:          0  HIT:          0  MISS:          0
LLC WRITEBACK ACCESS:     122522  HIT:     122522  MISS:          0

Region of Interest Statistics

CPU 0 cumulative IPC: 0.533992 instructions: 100000000 cycles: 187268712
L1D TOTAL     ACCESS:   28986902  HIT:   28399764  MISS:     587138
L1D LOAD      ACCESS:   13088936  HIT:   12693434  MISS:     395502
L1D RFO       ACCESS:   15897966  HIT:   15706330  MISS:     191636
L1D PREFETCH  ACCESS:          0  HIT:          0  MISS:          0
L1D WRITEBACK ACCESS:          0  HIT:          0  MISS:          0
L1D PREFETCH  REQUESTED:          0  ISSUED:          0  USEFUL:          0  USELESS:          0
L1D BACK HITS: 0
L1D CROSS CORE: 0
L1D TOTAL REPL: 0
L1I TOTAL     ACCESS:   29639594  HIT:   29277791  MISS:     361803
L1I LOAD      ACCESS:   29639594  HIT:   29277791  MISS:     361803
L1I RFO       ACCESS:          0  HIT:          0  MISS:          0
L1I PREFETCH  ACCESS:          0  HIT:          0  MISS:          0
L1I WRITEBACK ACCESS:          0  HIT:          0  MISS:          0
L1I PREFETCH  REQUESTED:          0  ISSUED:          0  USEFUL:          0  USELESS:          0
L1I BACK HITS: 0
L1I CROSS CORE: 0
L1I TOTAL REPL: 0
L2C TOTAL     ACCESS:    1175827  HIT:     544626  MISS:     631201
L2C LOAD      ACCESS:     757305  HIT:     277564  MISS:     479741
L2C RFO       ACCESS:     191636  HIT:      40772  MISS:     150864
L2C PREFETCH  ACCESS:          0  HIT:          0  MISS:          0
L2C WRITEBACK ACCESS:     226886  HIT:     226290  MISS:        596
L2C PREFETCH  REQUESTED:          0  ISSUED:          0  USEFUL:          0  USELESS:          0
L2C BACK HITS: 0
L2C CROSS CORE: 0
L2C TOTAL REPL: 0
LLC TOTAL     ACCESS:     796123  HIT:     789360  MISS:       6763
LLC LOAD      ACCESS:     479691  HIT:     474599  MISS:       5092
LLC RFO       ACCESS:     150864  HIT:     149193  MISS:       1671
LLC PREFETCH  ACCESS:          0  HIT:          0  MISS:          0
LLC WRITEBACK ACCESS:     165568  HIT:     165568  MISS:          0
LLC PREFETCH  REQUESTED:          0  ISSUED:          0  USEFUL:          0  USELESS:          0
LLC BACK HITS: 0
LLC CROSS CORE: 0
LLC TOTAL REPL: 0
Major fault: 0 Minor fault: 321

CPU 1 cumulative IPC: 0.750219 instructions: 100000000 cycles: 133294474
L1D TOTAL     ACCESS:   23545326  HIT:   22792594  MISS:     752732
L1D LOAD      ACCESS:   14901475  HIT:   14279819  MISS:     621656
L1D RFO       ACCESS:    8643851  HIT:    8512775  MISS:     131076
L1D PREFETCH  ACCESS:          0  HIT:          0  MISS:          0
L1D WRITEBACK ACCESS:          0  HIT:          0  MISS:          0
L1D PREFETCH  REQUESTED:          0  ISSUED:          0  USEFUL:          0  USELESS:          0
L1D BACK HITS: 0
L1D CROSS CORE: 0
L1D TOTAL REPL: 0
L1I TOTAL     ACCESS:   20990347  HIT:   20957612  MISS:      32735
L1I LOAD      ACCESS:   20990347  HIT:   20957612  MISS:      32735
L1I RFO       ACCESS:          0  HIT:          0  MISS:          0
L1I PREFETCH  ACCESS:          0  HIT:          0  MISS:          0
L1I WRITEBACK ACCESS:          0  HIT:          0  MISS:          0
L1I PREFETCH  REQUESTED:          0  ISSUED:          0  USEFUL:          0  USELESS:          0
L1I BACK HITS: 0
L1I CROSS CORE: 0
L1I TOTAL REPL: 0
L2C TOTAL     ACCESS:     926722  HIT:     463370  MISS:     463352
L2C LOAD      ACCESS:     654390  HIT:     271864  MISS:     382526
L2C RFO       ACCESS:     131076  HIT:      52230  MISS:      78846
L2C PREFETCH  ACCESS:          0  HIT:          0  MISS:          0
L2C WRITEBACK ACCESS:     141256  HIT:     139276  MISS:       1980
L2C PREFETCH  REQUESTED:          0  ISSUED:          0  USEFUL:          0  USELESS:          0
L2C BACK HITS: 0
L2C CROSS CORE: 0
L2C TOTAL REPL: 0
LLC TOTAL     ACCESS:     548373  HIT:     542457  MISS:       5916
LLC LOAD      ACCESS:     382526  HIT:     377642  MISS:       4884
LLC RFO       ACCESS:      78846  HIT:      77814  MISS:       1032
LLC PREFETCH  ACCESS:          0  HIT:          0  MISS:          0
LLC WRITEBACK ACCESS:      87001  HIT:      87001  MISS:          0
LLC PREFETCH  REQUESTED:          0  ISSUED:          0  USEFUL:          0  USELESS:          0
LLC BACK HITS: 0
LLC CROSS CORE: 0
LLC TOTAL REPL: 0
Major fault: 0 Minor fault: 210

DRAM Statistics
 CHANNEL 0
 RQ ROW_BUFFER_HIT:       4186  ROW_BUFFER_MISS:       2137
 DBUS_CONGESTED:       1514
 WQ ROW_BUFFER_HIT:          0  ROW_BUFFER_MISS:          0  FULL:          0

 CHANNEL 1
 RQ ROW_BUFFER_HIT:       4225  ROW_BUFFER_MISS:       2130
 DBUS_CONGESTED:       1514
 WQ ROW_BUFFER_HIT:          0  ROW_BUFFER_MISS:          0  FULL:          0

 AVG_CONGESTED_CYCLE: 9
